geometry optimzed in LAMMPS
_audit_creation_date              2020-11-30 
_audit_creation_method            'lammps2cif' 
_symmetry_space_group_name_H-M    'P1' 
_symmetry_Int_Tables_number       1 
_symmetry_cell_setting            triclinic 
loop_ 
_symmetry_equiv_pos_as_xyz 
  x,y,z 
_cell_length_a                    43.55065671 
_cell_length_b                    43.77557697757601 
_cell_length_c                    65.39640943760229 
_cell_angle_alpha                 90.04879998800178 
_cell_angle_beta                  89.88543626840152 
_cell_angle_gamma                 119.90845700097896 
loop_ 
_atom_site_label 
_atom_site_type_symbol 
_atom_site_fract_x 
_atom_site_fract_y 
_atom_site_fract_z 
_atom_site_charge 
O1          O  0.46786667  0.47608786  0.27633755    -0.72200
O2          O  0.46647871  0.47406345  0.21810512    -0.72500
O3          O  0.46629737  0.43092760  0.24759982    -0.72300
O4          O  0.46468955  0.01753124  0.24752608    -0.72300
O5          O  0.02328231  0.04448020  0.24787928    -0.72300
O6          O  0.02331344  0.45818395  0.24684261    -0.72300
O7          O  0.02052865  0.99991013  0.21836690    -0.72300
O8          O  0.02115529  0.99903836  0.27666743    -0.72400
V9          V  0.46828810  0.47558742  0.24721785     1.35200
V10         V  0.01978543  0.99918932  0.24753909     1.35200
C11         C  0.99281735  0.98693061  0.28695052     0.77000
C12         C  0.99160887  0.98598447  0.20859924     0.77000
C13         C  0.49481745  0.42981749  0.24739833     0.76900
C14         C  0.49410365  0.04594878  0.24815655     0.76900
O15         O  0.47112046  0.22974341  0.27912424    -0.72200
O16         O  0.46818570  0.22123203  0.22109900    -0.72500
O17         O  0.46992882  0.18213769  0.25220585    -0.72300
O18         O  0.46869778  0.26848516  0.24788859    -0.72300
O19         O  0.02597040  0.29767544  0.25059660    -0.72300
O20         O  0.02748406  0.21115832  0.24785548    -0.72300
O21         O  0.02515563  0.25598612  0.22025920    -0.72300
O22         O  0.02803295  0.25291190  0.27821960    -0.72400
V23         V  0.47046839  0.22588636  0.25008496     1.35200
V24         V  0.02566295  0.25388931  0.24925408     1.35200
C25         C  0.00021695  0.24121527  0.28885742     0.77000
C26         C  0.99658596  0.23942444  0.21051555     0.77000
C27         C  0.99914320  0.18181167  0.24965330     0.76900
C28         C  0.99695185  0.29772247  0.24950293     0.76900
O29         O  0.28606976  0.05706348  0.25151800    -0.72200
O30         O  0.27828462  0.46587692  0.25082730    -0.72500
O31         O  0.28662362  0.01433852  0.22206463    -0.72300
O32         O  0.28255777  0.01124267  0.28031813    -0.72300
O33         O  0.22006506  0.48004510  0.27929482    -0.72300
O34         O  0.22340888  0.48417044  0.22119818    -0.72300
O35         O  0.22088732  0.43826855  0.24939077    -0.72300
O36         O  0.22862941  0.02989594  0.25044672    -0.72400
V37         V  0.28352822  0.01233479  0.25118534     1.35200
V38         V  0.22292607  0.48280553  0.25025453     1.35200
C39         C  0.25782546  0.05858907  0.25102709     0.77000
C40         C  0.24930917  0.43704110  0.24996472     0.77000
C41         C  0.25846465  0.00128627  0.21160350     0.76900
C42         C  0.25305815  0.99681377  0.28954285     0.76900
O43         O  0.22434384  0.27579512  0.25169190    -0.72200
O44         O  0.22820055  0.19077724  0.25244371    -0.72500
O45         O  0.22744819  0.23442536  0.28121604    -0.72300
O46         O  0.22499347  0.23209012  0.22303000    -0.72300
O47         O  0.28242316  0.26276189  0.22208228    -0.72300
O48         O  0.28496557  0.26460855  0.28033608    -0.72300
O49         O  0.28563413  0.22103196  0.25130781    -0.72300
O50         O  0.28174970  0.30611582  0.25113323    -0.72400
V51         V  0.22738117  0.23385476  0.25209950     1.35200
V52         V  0.28258310  0.26301810  0.25124281     1.35200
C53         C  0.25239411  0.30552818  0.25122641     0.77000
C54         C  0.25752629  0.19134184  0.25181056     0.77000
C55         C  0.25661488  0.24996960  0.29067112     0.76900
C56         C  0.25323221  0.24725213  0.21261329     0.76900
O57         O  0.04963723  0.01115860  0.41626660    -0.72200
O58         O  0.46171513  0.00963902  0.41640243    -0.72500
O59         O  0.00468499  0.00823634  0.44545296    -0.72300
O60         O  0.00650040  0.01243748  0.38716483    -0.72300
O61         O  0.48279560  0.45539771  0.38558181    -0.72300
O62         O  0.47961863  0.45300804  0.44397832    -0.72300
O63         O  0.43778425  0.45439832  0.41425433    -0.72300
O64         O  0.02483194  0.45398078  0.41541418    -0.72400
V65         V  0.00515381  0.00931280  0.41629477     1.35200
V66         V  0.48183700  0.45526585  0.41478846     1.35200
C67         C  0.05065351  0.98282443  0.41586802     0.77000
C68         C  0.43266639  0.98098695  0.41540986     0.77000
C69         C  0.98976778  0.97896916  0.45478190     0.76900
C70         C  0.99302741  0.98451573  0.37656452     0.76900
O71         O  0.03641832  0.22548223  0.41790420    -0.72200
O72         O  0.44970722  0.22651008  0.41840794    -0.72500
O73         O  0.49114832  0.22281536  0.38905737    -0.72300
O74         O  0.49574517  0.23032975  0.44707195    -0.72300
O75         O  0.02186563  0.28642963  0.44460719    -0.72300
O76         O  0.02107165  0.27919312  0.38678122    -0.72300
O77         O  0.47826597  0.28338003  0.41491079    -0.72300
O78         O  0.06532937  0.28264664  0.41657305    -0.72400
V79         V  0.49386229  0.22751530  0.41803699     1.35200
V80         V  0.02111077  0.28169530  0.41576551     1.35200
C81         C  0.06571787  0.25394837  0.41740342     0.77000
C82         C  0.44908681  0.25497744  0.41677290     0.77000
C83         C  0.00536530  0.24945449  0.37808792     0.76900
C84         C  0.00893554  0.25951039  0.45593710     0.76900
O85         O  0.23225131  0.45555424  0.44650829    -0.72200
O86         O  0.23202246  0.45479996  0.38805979    -0.72500
O87         O  0.27594167  0.45544604  0.41720397    -0.72300
O88         O  0.18828424  0.45445744  0.41731669    -0.72300
O89         O  0.21428469  0.01474632  0.41766997    -0.72300
O90         O  0.30193023  0.01488107  0.41734993    -0.72300
O91         O  0.25890569  0.01669524  0.38849609    -0.72300
O92         O  0.25769848  0.01353721  0.44656342    -0.72400
V93         V  0.23269979  0.45614845  0.41727764     1.35200
V94         V  0.25762244  0.01385655  0.41750882     1.35200
C95         C  0.24308751  0.98453556  0.45607483     0.77000
C96         C  0.24546872  0.98873437  0.37801046     0.77000
C97         C  0.30229393  0.98613885  0.41695389     0.76900
C98         C  0.18514703  0.98601365  0.41682094     0.76900
O99         O  0.27092520  0.28454794  0.44778634    -0.72200
O100        O  0.27306443  0.28219162  0.38978726    -0.72500
O101        O  0.22779667  0.28271719  0.41781808    -0.72300
O102        O  0.31565872  0.28394488  0.41963151    -0.72300
O103        O  0.28739399  0.22671389  0.41883966    -0.72300
O104        O  0.19971729  0.22563928  0.42014195    -0.72300
O105        O  0.24228394  0.22549684  0.39038295    -0.72300
O106        O  0.24508252  0.22742286  0.44866623    -0.72400
V107        V  0.27123747  0.28225347  0.41879171     1.35200
V108        V  0.24414226  0.22737930  0.41950673     1.35200
C109        C  0.25841903  0.25647954  0.45814918     0.77000
C110        C  0.25805017  0.25354353  0.37996281     0.77000
C111        C  0.19876526  0.25394667  0.41887699     0.76900
C112        C  0.31643433  0.25547661  0.41910134     0.76900
O113        O  0.46183428  0.47620701  0.05101378    -0.72200
O114        O  0.46299022  0.47117693  0.10911919    -0.72500
O115        O  0.46041414  0.01596476  0.08227455    -0.72300
O116        O  0.46347482  0.43064773  0.07822201    -0.72300
O117        O  0.02066946  0.45975471  0.07798544    -0.72300
O118        O  0.01723946  0.04480621  0.08190102    -0.72300
O119        O  0.01800101  0.99980808  0.10976665    -0.72300
O120        O  0.01807609  0.00405871  0.05157764    -0.72400
V121        V  0.46355611  0.47408992  0.08003939     1.35200
V122        V  0.01687160  0.00114939  0.08066679     1.35200
C123        C  0.98932953  0.99118665  0.04171077     0.77000
C124        C  0.98924750  0.98446756  0.11970975     0.77000
C125        C  0.98827963  0.04498611  0.08260686     0.76900
C126        C  0.99217332  0.43033703  0.07794029     0.76900
O127        O  0.46254943  0.18059366  0.08242494    -0.72200
O128        O  0.46341002  0.26799198  0.08069170    -0.72500
O129        O  0.46194887  0.22231665  0.05252994    -0.72300
O130        O  0.46416292  0.22562231  0.11065674    -0.72300
O131        O  0.02108313  0.25418893  0.10962363    -0.72300
O132        O  0.01920688  0.24969300  0.05163622    -0.72300
O133        O  0.02090285  0.29595854  0.07954532    -0.72300
O134        O  0.01942614  0.20810006  0.08163336    -0.72400
V135        V  0.46412562  0.22478314  0.08157458     1.35200
V136        V  0.01904548  0.25147825  0.08063322     1.35200
C137        C  0.99042139  0.17920987  0.08232106     0.77000
C138        C  0.99239218  0.29705487  0.07956291     0.77000
C139        C  0.49043033  0.23503526  0.04236129     0.76900
C140        C  0.49310387  0.24045941  0.12042636     0.76900
O141        O  0.22317205  0.48286979  0.05499910    -0.72200
O142        O  0.22264907  0.48790540  0.11320847    -0.72500
O143        O  0.22422093  0.02979687  0.08337071    -0.72300
O144        O  0.22381010  0.44299977  0.08565528    -0.72300
O145        O  0.28122208  0.47228700  0.08402911    -0.72300
O146        O  0.28163967  0.06046660  0.08392537    -0.72300
O147        O  0.28481560  0.01820388  0.11278177    -0.72300
O148        O  0.28296858  0.01772374  0.05464946    -0.72400
V149        V  0.22384818  0.48629325  0.08409593     1.35200
V150        V  0.28273587  0.01738528  0.08373284     1.35200
C151        C  0.25422547  0.00043830  0.04495095     0.77000
C152        C  0.25637768  0.00382653  0.12301926     0.77000
C153        C  0.25214596  0.05963982  0.08359166     0.76900
C154        C  0.25273679  0.44287465  0.08488246     0.76900
O155        O  0.27338678  0.26380917  0.05497033    -0.72200
O156        O  0.27679417  0.26190434  0.11323241    -0.72500
O157        O  0.27525600  0.21931078  0.08308456    -0.72300
O158        O  0.27564132  0.30627180  0.08513925    -0.72300
O159        O  0.21821099  0.27818085  0.08595766    -0.72300
O160        O  0.21785491  0.19064621  0.08445514    -0.72300
O161        O  0.21933503  0.23390388  0.11427119    -0.72300
O162        O  0.21642677  0.23478842  0.05606201    -0.72400
V163        V  0.27413449  0.26219126  0.08412253     1.35200
V164        V  0.21903125  0.23490202  0.08516216     1.35200
C165        C  0.24433157  0.25004397  0.04535578     0.77000
C166        C  0.24854840  0.24771949  0.12370962     0.77000
C167        C  0.24665522  0.19010181  0.08360032     0.76900
C168        C  0.24714475  0.30723768  0.08575581     0.76900
O169        O  0.01975546  0.07036733  0.91733628    -0.72200
O170        O  0.42920220  0.48639411  0.91466446    -0.72500
O171        O  0.47596081  0.02350787  0.94511701    -0.72300
O172        O  0.47593905  0.03198453  0.88703359    -0.72300
O173        O  0.00070907  0.50265550  0.88403253    -0.72300
O174        O  0.00208101  0.49614709  0.94182842    -0.72300
O175        O  0.45677447  0.45670839  0.91240297    -0.72300
O176        O  0.04782189  0.04127243  0.91413676    -0.72400
V177        V  0.47631729  0.02711553  0.91600413     1.35200
V178        V  0.00079860  0.50004740  0.91298617     1.35200
C179        C  0.04879880  0.07058789  0.91575672     0.77000
C180        C  0.42784997  0.45690989  0.91355630     0.77000
C181        C  0.98984159  0.00725122  0.95359134     0.76900
C182        C  0.99054554  0.01904288  0.87590920     0.76900
O183        O  0.48091135  0.24131085  0.94195545    -0.72200
O184        O  0.49650245  0.24964929  0.88453953    -0.72500
O185        O  0.44714895  0.20128650  0.90948315    -0.72300
O186        O  0.03066258  0.29006612  0.91723448    -0.72300
O187        O  0.06172220  0.26415710  0.91460566    -0.72300
O188        O  0.47666583  0.17523653  0.91714343    -0.72300
O189        O  0.02014746  0.21633950  0.88664056    -0.72300
O190        O  0.01845935  0.22341529  0.94462227    -0.72400
V191        V  0.48932423  0.24517281  0.91329743     1.35200
V192        V  0.01879970  0.22021715  0.91562875     1.35200
C193        C  0.49781202  0.23169025  0.95344360     0.77000
C194        C  0.50973674  0.23310685  0.87575630     0.77000
C195        C  0.44708598  0.17299165  0.91351882     0.76900
C196        C  0.06082861  0.29243577  0.91677490     0.76900
O197        O  0.22428555  0.42350040  0.91664880    -0.72200
O198        O  0.30987378  0.01050717  0.91948181    -0.72500
O199        O  0.26546241  0.46508929  0.94729541    -0.72300
O200        O  0.27273612  0.46637652  0.88900159    -0.72300
O201        O  0.23521543  0.99229562  0.88738641    -0.72300
O202        O  0.24312231  0.00553010  0.94503640    -0.72300
O203        O  0.28375253  0.04020377  0.91263564    -0.72300
O204        O  0.19834493  0.45448215  0.91943905    -0.72400
V205        V  0.26863075  0.46618877  0.91812940     1.35200
V206        V  0.23957129  0.99828755  0.91625438     1.35200
C207        C  0.19581952  0.42447917  0.91844715     0.77000
C208        C  0.31227169  0.04003649  0.91594210     0.77000
C209        C  0.25269630  0.98807663  0.95609896     0.76900
C210        C  0.25207297  0.97966019  0.87831576     0.76900
O211        O  0.26534406  0.32251983  0.91853186    -0.72200
O212        O  0.17924585  0.23420420  0.91859719    -0.72500
O213        O  0.22458656  0.27601681  0.94767230    -0.72300
O214        O  0.22006992  0.28104906  0.88966161    -0.72300
O215        O  0.25077655  0.25457383  0.88656015    -0.72300
O216        O  0.25365916  0.24790765  0.94450748    -0.72300
O217        O  0.20931781  0.20722245  0.91485603    -0.72300
O218        O  0.29518785  0.29512026  0.91604219    -0.72400
V219        V  0.22285459  0.27789273  0.91859060     1.35200
V220        V  0.25162834  0.25173225  0.91557284     1.35200
C221        C  0.29498605  0.32387020  0.91700338     0.77000
C222        C  0.17962920  0.20560953  0.91661678     0.77000
C223        C  0.23965845  0.26088319  0.95600461     0.76900
C224        C  0.23519697  0.26919560  0.87823749     0.76900
O225        O  0.47879042  0.46108196  0.55520018    -0.72200
O226        O  0.48156223  0.47425067  0.61315746    -0.72500
O227        O  0.43632714  0.46678841  0.58320756    -0.72300
O228        O  0.02415373  0.46797469  0.58532135    -0.72300
O229        O  0.05543581  0.02102632  0.58074623    -0.72300
O230        O  0.46704020  0.01888535  0.58052497    -0.72300
O231        O  0.01419934  0.02635520  0.60934860    -0.72300
O232        O  0.00834900  0.01359865  0.55182471    -0.72400
V233        V  0.48076764  0.46852242  0.58415025     1.35200
V234        V  0.01070503  0.01878080  0.58068677     1.35200
C235        C  0.99358063  0.98324011  0.54387411     0.77000
C236        C  0.00060258  0.00077069  0.62166731     0.77000
C237        C  0.43825860  0.99005383  0.58240272     0.76900
C238        C  0.05690809  0.99318516  0.58342979     0.76900
O239        O  0.45272861  0.24177656  0.58330223    -0.72200
O240        O  0.03857585  0.23935520  0.58384030    -0.72500
O241        O  0.49442355  0.23930325  0.61277840    -0.72300
O242        O  0.49702514  0.24136137  0.55501092    -0.72300
O243        O  0.02174684  0.29802441  0.55539056    -0.72300
O244        O  0.02850559  0.29644445  0.61347608    -0.72300
O245        O  0.06817320  0.29626853  0.58212686    -0.72300
O246        O  0.48263533  0.29838940  0.58715438    -0.72400
V247        V  0.49621682  0.24148773  0.58382023     1.35200
V248        V  0.02480324  0.29632604  0.58446441     1.35200
C249        C  0.45296883  0.27059835  0.58548067     0.77000
C250        C  0.06814543  0.26739350  0.58241986     0.77000
C251        C  0.01164653  0.26752694  0.62295361     0.76900
C252        C  0.00863055  0.26969110  0.54517135     0.76900
O253        O  0.26067706  0.01782209  0.55395607    -0.72200
O254        O  0.26554814  0.02271652  0.61223354    -0.72500
O255        O  0.30545250  0.01828332  0.58236326    -0.72300
O256        O  0.22053255  0.02272818  0.58380284    -0.72300
O257        O  0.18600687  0.46751657  0.58391445    -0.72300
O258        O  0.27243433  0.46574696  0.58513407    -0.72300
O259        O  0.22884190  0.46822879  0.61347784    -0.72300
O260        O  0.22943272  0.46476033  0.55552436    -0.72400
V261        V  0.26240612  0.01930684  0.58310780     1.35200
V262        V  0.22974162  0.46770919  0.58450018     1.35200
C263        C  0.24546401  0.98832826  0.54488179     0.77000
C264        C  0.25031939  0.99491343  0.62292314     0.77000
C265        C  0.30476199  0.98914065  0.58362387     0.76900
C266        C  0.19067082  0.99486810  0.58438128     0.76900
O267        O  0.27663150  0.29699016  0.55477194    -0.72200
O268        O  0.27540892  0.30730531  0.61247912    -0.72500
O269        O  0.32072603  0.30434663  0.58582125    -0.72300
O270        O  0.23110409  0.29917160  0.58188651    -0.72300
O271        O  0.20529773  0.24239231  0.58384221    -0.72300
O272        O  0.29407774  0.24788386  0.58977412    -0.72300
O273        O  0.24728168  0.25033511  0.61586525    -0.72300
O274        O  0.25173802  0.24023294  0.55822334    -0.72400
V275        V  0.27551486  0.30090251  0.58374886     1.35200
V276        V  0.25018790  0.24634061  0.58693583     1.35200
C277        C  0.26411727  0.26688160  0.54663270     0.77000
C278        C  0.26070854  0.28059299  0.62395393     0.77000
C279        C  0.32275486  0.27682579  0.58866715     0.76900
C280        C  0.20273158  0.26967274  0.58201221     0.76900
O281        O  0.47257353  0.47419575  0.75006933    -0.72200
O282        O  0.06253154  0.06081221  0.74996624    -0.72500
O283        O  0.01478422  0.51923315  0.77869584    -0.72300
O284        O  0.01872417  0.51481670  0.72092753    -0.72300
O285        O  0.49052398  0.04059519  0.71837609    -0.72300
O286        O  0.48865210  0.04821908  0.77651156    -0.72300
O287        O  0.03307112  0.08841925  0.74649842    -0.72300
O288        O  0.44474015  0.50369112  0.74789734    -0.72400
V289        V  0.01635590  0.51785390  0.74978056     1.35200
V290        V  0.49038652  0.04425645  0.74748298     1.35200
C291        C  0.44359058  0.47434258  0.74923579     0.77000
C292        C  0.06261010  0.08969810  0.74823620     0.77000
C293        C  0.00217878  0.03458085  0.78788318     0.76900
C294        C  0.00489828  0.02464302  0.71020201     0.76900
O295        O  0.01761609  0.22906486  0.71813660    -0.72200
O296        O  0.02306808  0.22303565  0.77578049    -0.72500
O297        O  0.47589658  0.18271668  0.74714172    -0.72300
O298        O  0.06427151  0.26910470  0.74682590    -0.72300
O299        O  0.03648241  0.29816596  0.75150457    -0.72300
O300        O  0.44807443  0.21211142  0.75014144    -0.72300
O301        O  0.49382320  0.25101558  0.77963033    -0.72300
O302        O  0.49133593  0.25971966  0.72205809    -0.72400
V303        V  0.01964694  0.22650980  0.74701039     1.35200
V304        V  0.49279522  0.25452746  0.75078307     1.35200
C305        C  0.00494996  0.24671881  0.71022151     0.77000
C306        C  0.00959325  0.23625500  0.78743368     0.77000
C307        C  0.44691841  0.18271118  0.74876592     0.76900
C308        C  0.06541833  0.29838874  0.74912119     0.76900
O309        O  0.27153553  0.47266352  0.77845982    -0.72200
O310        O  0.27071411  0.48193912  0.72068803    -0.72500
O311        O  0.31401179  0.02135104  0.75144568    -0.72300
O312        O  0.22810482  0.43323862  0.74809568    -0.72300
O313        O  0.19804579  0.46008069  0.75247585    -0.72300
O314        O  0.28382746  0.04858867  0.75232238    -0.72300
O315        O  0.23962706  0.00582480  0.72298589    -0.72300
O316        O  0.24160251  0.00212957  0.78115405    -0.72400
V317        V  0.27050122  0.47776414  0.74960289     1.35200
V318        V  0.24138991  0.00371708  0.75205589     1.35200
C319        C  0.25583568  0.98662944  0.79000210     0.77000
C320        C  0.25559503  0.99413183  0.71212545     0.77000
C321        C  0.31360491  0.05004440  0.75179081     0.76900
C322        C  0.19838577  0.43157526  0.74995751     0.76900
O323        O  0.23227175  0.29752041  0.77964508    -0.72200
O324        O  0.23850582  0.30067729  0.72157624    -0.72500
O325        O  0.19265237  0.25461319  0.74917043    -0.72300
O326        O  0.27841453  0.34341442  0.75181146    -0.72300
O327        O  0.30851144  0.31606510  0.75263310    -0.72300
O328        O  0.22309834  0.22777200  0.75059848    -0.72300
O329        O  0.26822052  0.27301598  0.72253721    -0.72300
O330        O  0.26299428  0.27084249  0.78065022    -0.72400
V331        V  0.23605161  0.29855907  0.75060207     1.35200
V332        V  0.26515350  0.27252190  0.75158654     1.35200
C333        C  0.24608706  0.28313804  0.79002983     0.77000
C334        C  0.25434918  0.28734304  0.71212922     0.77000
C335        C  0.19324218  0.22594758  0.74958012     0.76900
C336        C  0.30813831  0.34475020  0.75230886     0.76900
C337        C  0.38860026  0.14191775  0.76573477    -0.02300
C338        C  0.41248525  0.14907154  0.74935773     0.07400
C339        C  0.40341882  0.12384084  0.73367210    -0.02400
C340        C  0.37120359  0.09152235  0.73457037    -0.02400
C341        C  0.34729399  0.08437769  0.75092813     0.07500
C342        C  0.35589691  0.11001531  0.76632237    -0.02600
Br343      Br  0.32346874  0.10109264  0.78866259    -0.01200
Br344      Br  0.40157057  0.17484111  0.78813770    -0.01200
Br345      Br  0.35902050  0.05773221  0.71269188    -0.01200
Br346      Br  0.43420839  0.13431367  0.71027564    -0.01200
C347        C  0.12836369  0.33616814  0.76104030    -0.02300
C348        C  0.09973275  0.33218320  0.74896824     0.07400
C349        C  0.10401478  0.36071228  0.73677005    -0.02400
C350        C  0.13639016  0.39292165  0.73685090    -0.02400
C351        C  0.16477771  0.39712960  0.74926652     0.07500
C352        C  0.16072894  0.36836203  0.76113799    -0.02600
Br353      Br  0.19889091  0.37314925  0.77837322    -0.01200
Br354      Br  0.12275595  0.29827265  0.77856966    -0.01200
Br355      Br  0.14249862  0.43046309  0.71875740    -0.01200
Br356      Br  0.06617595  0.35536037  0.71903431    -0.01200
C357        C  0.38386939  0.43310447  0.73429859    -0.02300
C358        C  0.40898968  0.44113283  0.74999347     0.07400
C359        C  0.40038101  0.41798474  0.76677018    -0.02400
C360        C  0.36696173  0.38706016  0.76782160    -0.02400
C361        C  0.34195207  0.37884637  0.75205496     0.07500
C362        C  0.35043935  0.40216291  0.73535861    -0.02600
Br363      Br  0.31696824  0.39100841  0.71337212    -0.01200
Br364      Br  0.39608428  0.46339645  0.71063103    -0.01200
Br365      Br  0.35474985  0.35671507  0.79142568    -0.01200
Br366      Br  0.43386175  0.42917003  0.78876070    -0.01200
C367        C  0.13079044  0.18486392  0.76164701    -0.02300
C368        C  0.15986712  0.19101587  0.74916157     0.07400
C369        C  0.15713777  0.16327630  0.73671012    -0.02400
C370        C  0.12554955  0.13022599  0.73643401    -0.02400
C371        C  0.09626326  0.12435599  0.74862721     0.07500
C372        C  0.09919488  0.15191257  0.76129476    -0.02600
Br373      Br  0.06065220  0.14418394  0.77926654    -0.01200
Br374      Br  0.13490989  0.22053412  0.78063543    -0.01200
Br375      Br  0.12197106  0.09362792  0.71839376    -0.01200
Br376      Br  0.19612773  0.17057795  0.71927244    -0.01200
C377        C  0.29048766  0.29623891  0.65806395    -0.02300
C378        C  0.25957211  0.28471129  0.64633793     0.07400
C379        C  0.22771405  0.27741929  0.65602367    -0.02400
C380        C  0.22599856  0.27891235  0.67750078    -0.02400
C381        C  0.25648161  0.28822668  0.68944284     0.07500
C382        C  0.28901656  0.29801847  0.67954129    -0.02600
Br383      Br  0.33216727  0.31575205  0.69517087    -0.01200
Br384      Br  0.33491938  0.30963598  0.64458503    -0.01200
Br385      Br  0.18126753  0.26672740  0.69030400    -0.01200
Br386      Br  0.18682161  0.26707336  0.63975054    -0.01200
C387        C  0.24984335  0.52378640  0.67933627    -0.02300
C388        C  0.25491092  0.99505697  0.68927367     0.07400
C389        C  0.25540740  0.96791975  0.67769062    -0.02400
C390        C  0.25564627  0.96901974  0.65615658    -0.02400
C391        C  0.25275877  0.99578073  0.64571249     0.07500
C392        C  0.24653756  0.52358753  0.65780753    -0.02600
Br393      Br  0.23844807  0.55871175  0.64496456    -0.01200
Br394      Br  0.25374241  0.56344971  0.69457764    -0.01200
Br395      Br  0.26209121  0.93440518  0.64119479    -0.01200
Br396      Br  0.25371543  0.92746851  0.69086355    -0.01200
C397        C  0.38904499  0.24510355  0.59598730    -0.02300
C398        C  0.41964854  0.27216190  0.58634838     0.07400
C399        C  0.41896746  0.30199019  0.57855498    -0.02400
C400        C  0.38848042  0.30515939  0.58075350    -0.02400
C401        C  0.35739517  0.27753879  0.58983673     0.07500
C402        C  0.35879409  0.24852632  0.59849947    -0.02600
Br403      Br  0.32092080  0.21461045  0.61582636    -0.01200
Br404      Br  0.38735766  0.20251083  0.60580602    -0.01200
Br405      Br  0.39109438  0.34846230  0.57158547    -0.01200
Br406      Br  0.45847455  0.33740311  0.56279113    -0.01200
C407        C  0.10497017  0.23918750  0.59076972    -0.02300
C408        C  0.10185262  0.26650545  0.58114961     0.07400
C409        C  0.13116519  0.29283310  0.57010560    -0.02400
C410        C  0.16368840  0.29321960  0.56986256    -0.02400
C411        C  0.16740240  0.26711734  0.58049769     0.07500
C412        C  0.13717933  0.23897480  0.58999738    -0.02600
Br413      Br  0.13855621  0.19936230  0.60233442    -0.01200
Br414      Br  0.06606181  0.20234827  0.60622395    -0.01200
Br415      Br  0.20214212  0.32840061  0.55338120    -0.01200
Br416      Br  0.12713840  0.32785876  0.55410977    -0.01200
C417        C  0.48119997  0.25981904  0.65641335    -0.02300
C418        C  0.01160686  0.26596847  0.64541302     0.07400
C419        C  0.04048493  0.26733319  0.65579088    -0.02400
C420        C  0.03851055  0.26135558  0.67702352    -0.02400
C421        C  0.00706176  0.25301155  0.68787561     0.07500
C422        C  0.47835705  0.25232598  0.67745737    -0.02600
Br423      Br  0.43414606  0.23903893  0.69124151    -0.01200
Br424      Br  0.44441125  0.26402962  0.64267760    -0.01200
Br425      Br  0.07982086  0.26633963  0.69103615    -0.01200
Br426      Br  0.08280862  0.27756801  0.64082129    -0.01200
C427        C  0.37396931  0.47363303  0.56854427    -0.02300
C428        C  0.40381439  0.98918819  0.58285691     0.07400
C429        C  0.39816285  0.01020600  0.59703890    -0.02400
C430        C  0.36561527  0.00977626  0.59744760    -0.02400
C431        C  0.33825489  0.98806136  0.58378303     0.07500
C432        C  0.34143545  0.47330798  0.56912083    -0.02600
Br433      Br  0.30548528  0.44652126  0.54900881    -0.01200
Br434      Br  0.38154178  0.44607830  0.54818154    -0.01200
Br435      Br  0.35799485  0.03762901  0.61763055    -0.01200
Br436      Br  0.43428676  0.03821182  0.61679784    -0.01200
C437        C  0.10042025  0.97973324  0.60062777    -0.02300
C438        C  0.09152500  0.99433786  0.58395322     0.07400
C439        C  0.11154213  0.51170333  0.56678285    -0.02400
C440        C  0.14408661  0.51207911  0.56710673    -0.02400
C441        C  0.15745345  0.99631459  0.58469027     0.07500
C442        C  0.13343014  0.98105412  0.60106442    -0.02600
Br443      Br  0.14697288  0.96426074  0.62479477    -0.01200
Br444      Br  0.06820566  0.95925436  0.62339408    -0.01200
Br445      Br  0.17651087  0.53190555  0.54438463    -0.01200
Br446      Br  0.09937626  0.53023577  0.54329794    -0.01200
C447        C  0.49034601  0.48226135  0.65777651    -0.02300
C448        C  0.00175205  0.00688284  0.64453816     0.07400
C449        C  0.01345260  0.04135850  0.65265527    -0.02400
C450        C  0.01364516  0.04682147  0.67398431    -0.02400
C451        C  0.00335440  0.01865449  0.68771341     0.07500
C452        C  0.49178681  0.48785337  0.67911547    -0.02600
Br453      Br  0.47776524  0.44831431  0.69747927    -0.01200
Br454      Br  0.47695581  0.43519324  0.64850071    -0.01200
Br455      Br  0.02940505  0.09365846  0.68458761    -0.01200
Br456      Br  0.02994813  0.08270270  0.63545583    -0.01200
C457        C  0.22401218  0.24264172  0.84319419    -0.02300
C458        C  0.23529091  0.27265792  0.85566041     0.07400
C459        C  0.24817587  0.30606228  0.84644211    -0.02400
C460        C  0.25123035  0.30953812  0.82495750    -0.02400
C461        C  0.24170113  0.27969551  0.81256670     0.07500
C462        C  0.22749860  0.24615247  0.82177267    -0.02600
Br463      Br  0.21120201  0.20453335  0.80502075    -0.01200
Br464      Br  0.20165421  0.19631190  0.85542440    -0.01200
Br465      Br  0.27025067  0.35556768  0.81263562    -0.01200
Br466      Br  0.26330685  0.34749289  0.86319327    -0.01200
C467        C  0.28583286  0.99927267  0.84532300    -0.02300
C468        C  0.25332664  0.97924535  0.85567879     0.07400
C469        C  0.22533405  0.45800133  0.84451225    -0.02400
C470        C  0.22527116  0.46114416  0.82305991    -0.02400
C471        C  0.25508076  0.98350991  0.81251687     0.07500
C472        C  0.28680490  0.00071291  0.82379646    -0.02600
Br473      Br  0.33157498  0.02729273  0.80980051    -0.01200
Br474      Br  0.32886435  0.02671039  0.86055426    -0.01200
Br475      Br  0.18119912  0.43681673  0.80822477    -0.01200
Br476      Br  0.18223424  0.42587948  0.85857435    -0.01200
C477        C  0.41173717  0.10619154  0.91022002    -0.11900
C478        C  0.41307156  0.13856406  0.91463646     0.07400
C479        C  0.38154099  0.13787528  0.92087231    -0.02400
C480        C  0.34893089  0.10600005  0.92109550    -0.02400
C481        C  0.34723518  0.07368776  0.91589569     0.07500
C482        C  0.37923311  0.07403898  0.91103607    -0.02600
Br483      Br  0.37972067  0.03089980  0.90504599    -0.01200
Br484      Br  0.45412353  0.10485232  0.90278950    -0.01200
Br485      Br  0.30719619  0.10760180  0.92994708    -0.01200
Br486      Br  0.38265976  0.17998083  0.93123671    -0.01200
C487        C  0.12446544  0.32873142  0.92814748    -0.02300
C488        C  0.09435944  0.32710055  0.91877588     0.07400
C489        C  0.09689764  0.35870512  0.91133756    -0.02400
C490        C  0.12970434  0.39050591  0.91149055    -0.02400
C491        C  0.16052747  0.39142281  0.91933665     0.07500
C492        C  0.15723816  0.36048961  0.92833336    -0.02600
Br493      Br  0.19682382  0.36141817  0.94238605    -0.01200
Br494      Br  0.12071307  0.28832053  0.94256111    -0.01200
Br495      Br  0.13149704  0.43230203  0.90020869    -0.01200
Br496      Br  0.05586655  0.35955904  0.90069923    -0.01200
C497        C  0.49847114  0.20185882  0.84192392    -0.02300
C498        C  0.01295059  0.23380344  0.85300800     0.07400
C499        C  0.02875877  0.26624843  0.84246109    -0.02400
C500        C  0.02804878  0.26694835  0.82098963    -0.02400
C501        C  0.01248194  0.23519969  0.80984210     0.07500
C502        C  0.49870698  0.20260862  0.82036792    -0.02600
Br503      Br  0.47887911  0.15907114  0.80511846    -0.01200
Br504      Br  0.47639273  0.15711025  0.85585596    -0.01200
Br505      Br  0.04963038  0.31165748  0.80679193    -0.01200
Br506      Br  0.05327049  0.31000565  0.85725435    -0.01200
C507        C  0.35425114  0.36392957  0.90080671    -0.02300
C508        C  0.32866432  0.35819882  0.91595283     0.07400
C509        C  0.33539492  0.38547131  0.92992304    -0.02400
C510        C  0.36754029  0.41784796  0.92898150    -0.02400
C511        C  0.39330164  0.42339309  0.91399550     0.07500
C512        C  0.38623882  0.39640077  0.89976485    -0.02600
Br513      Br  0.41943933  0.40454454  0.87792059    -0.01200
Br514      Br  0.34511444  0.32800688  0.88067434    -0.01200
Br515      Br  0.37677749  0.45375057  0.94912476    -0.01200
Br516      Br  0.30158360  0.37793957  0.95128391    -0.01200
C517        C  0.11119683  0.10992323  0.92830822    -0.02300
C518        C  0.08287101  0.10458742  0.91549627     0.07400
C519        C  0.08681785  0.13234519  0.90268251    -0.02400
C520        C  0.11812825  0.16545145  0.90326813    -0.02400
C521        C  0.14624640  0.17098011  0.91632162     0.07500
C522        C  0.14268366  0.14294681  0.92873917    -0.02600
Br523      Br  0.18010400  0.15020930  0.94739037    -0.01200
Br524      Br  0.10657051  0.07254572  0.94600958    -0.01200
Br525      Br  0.12284850  0.20268055  0.88537401    -0.01200
Br526      Br  0.05037623  0.12447255  0.88309796    -0.01200
C527        C  0.46577652  0.01966079  0.82000248    -0.02300
C528        C  0.99943151  0.03434108  0.81050091     0.07400
C529        C  0.02731743  0.54267984  0.82198161    -0.02400
C530        C  0.02408270  0.53772393  0.84330574    -0.02400
C531        C  0.99347214  0.02467378  0.85345822     0.07500
C532        C  0.46280360  0.01491639  0.84141187    -0.02600
Br533      Br  0.41662006  0.99225043  0.85414372    -0.01200
Br534      Br  0.42352445  0.00402314  0.80378868    -0.01200
Br535      Br  0.06588765  0.54948650  0.85925200    -0.01200
Br536      Br  0.07357267  0.56305666  0.80934489    -0.01200
C537        C  0.27319128  0.26905489  0.98869903    -0.02300
C538        C  0.24078934  0.25823748  0.97868363     0.07400
C539        C  0.20943551  0.24455178  0.99031745    -0.02400
C540        C  0.21032969  0.24191483  0.01185563    -0.02400
C541        C  0.24294577  0.25225479  0.02224488     0.07500
C542        C  0.27440821  0.26558588  0.01014429    -0.02600
Br543      Br  0.32016206  0.27895424  0.02194543    -0.01200
Br544      Br  0.31667848  0.29082368  0.97295454    -0.01200
Br545      Br  0.16570255  0.22434813  0.02621785    -0.01200
Br546      Br  0.16457240  0.22789579  0.97646933    -0.01200
C547        C  0.27165055  0.36922366  0.09898401    -0.02300
C548        C  0.24808087  0.34175334  0.08587994     0.07400
C549        C  0.22701294  0.34819538  0.07208323    -0.02400
C550        C  0.22968601  0.38164694  0.07128806    -0.02400
C551        C  0.25259618  0.40880334  0.08470961     0.07500
C552        C  0.27389730  0.40254910  0.09839437    -0.02600
Br553      Br  0.30536536  0.43915609  0.11694188    -0.01200
Br554      Br  0.29961957  0.36083292  0.11870618    -0.01200
Br555      Br  0.20389155  0.39103170  0.05052539    -0.01200
Br556      Br  0.19549817  0.31188646  0.05341524    -0.01200
C557        C  0.26860557  0.15109412  0.06900453    -0.02300
C558        C  0.24721219  0.15626401  0.08331399     0.07400
C559        C  0.22736417  0.12942241  0.09771807    -0.02400
C560        C  0.22876937  0.09783096  0.09772038    -0.02400
C561        C  0.25031719  0.09279155  0.08346664     0.07500
C562        C  0.27017711  0.11962853  0.06910549    -0.02600
Br563      Br  0.29833383  0.11270235  0.04874373    -0.01200
Br564      Br  0.29477249  0.18645275  0.04848599    -0.01200
Br565      Br  0.20260558  0.06230460  0.11815830    -0.01200
Br566      Br  0.20007670  0.13672051  0.11851005    -0.01200
C567        C  0.22316770  0.48752900  0.00994889    -0.02300
C568        C  0.25392939  0.99753105  0.02215953     0.07400
C569        C  0.28164186  0.99571514  0.01181145    -0.02400
C570        C  0.28171726  0.99362919  0.99027390    -0.02400
C571        C  0.25299909  0.99092110  0.97880743     0.07500
C572        C  0.22365016  0.48274237  0.98862296    -0.02600
Br573      Br  0.18128764  0.46920904  0.97279852    -0.01200
Br574      Br  0.18209255  0.48694691  0.02170599    -0.01200
Br575      Br  0.32244770  0.99640387  0.97656923    -0.01200
Br576      Br  0.31883475  0.99368785  0.02683429    -0.01200
C577        C  0.97381054  0.24687615  0.00762316    -0.02300
C578        C  0.49005205  0.23214502  0.01981704     0.07400
C579        C  0.50757639  0.21626804  0.01032338    -0.02400
C580        C  0.50914276  0.21495824  0.98882849    -0.02400
C581        C  0.49386942  0.23066124  0.97637391     0.07500
C582        C  0.97613631  0.24692029  0.98608520    -0.02600
Br583      Br  0.95565635  0.27058370  0.97112460    -0.01200
Br584      Br  0.94982198  0.26861000  0.02099799    -0.01200
Br585      Br  0.53137382  0.18983421  0.97742326    -0.01200
Br586      Br  0.52803991  0.19445812  0.02702408    -0.01200
C587        C  0.47110641  0.36995540  0.09225725    -0.02300
C588        C  0.99247832  0.39635589  0.07814408     0.07400
C589        C  0.01439634  0.39046350  0.06462907    -0.02400
C590        C  0.01475655  0.35831738  0.06520979    -0.02400
C591        C  0.99269622  0.33135106  0.07906624     0.07500
C592        C  0.47054677  0.33745089  0.09253299    -0.02600
Br593      Br  0.44074407  0.30214741  0.11221894    -0.01200
Br594      Br  0.44377272  0.37868520  0.11238968    -0.01200
Br595      Br  0.04446770  0.35088977  0.04621631    -0.01200
Br596      Br  0.04257119  0.42556513  0.04441019    -0.01200
C597        C  0.46487509  0.08414053  0.07041926    -0.02300
C598        C  0.98781713  0.07882393  0.08318164     0.07400
C599        C  0.01201426  0.10696874  0.09565688    -0.02400
C600        C  0.01300053  0.13970772  0.09534136    -0.02400
C601        C  0.98953846  0.14469159  0.08269809     0.07500
C602        C  0.46597509  0.11692569  0.07012613    -0.02600
Br603      Br  0.43537952  0.12353411  0.05143806    -0.01200
Br604      Br  0.43155032  0.04664682  0.05288354    -0.01200
Br605      Br  0.04566370  0.17708559  0.11312899    -0.01200
Br606      Br  0.04242766  0.10021404  0.11439247    -0.01200
C607        C  0.47301143  0.46699571  0.00571105    -0.02300
C608        C  0.98942443  0.99523777  0.01917197     0.07400
C609        C  0.00429512  0.02915612  0.01037319    -0.02400
C610        C  0.00425603  0.03311587  0.98895569    -0.02400
C611        C  0.98943149  0.00318941  0.97614769     0.07500
C612        C  0.47223904  0.47108178  0.98436642    -0.02600
Br613      Br  0.44962910  0.42983229  0.96710606    -0.01200
Br614      Br  0.45223600  0.42035470  0.01739378    -0.01200
Br615      Br  0.02606572  0.07972986  0.97712229    -0.01200
Br616      Br  0.02371611  0.07032711  0.02769695    -0.01200
C617        C  0.22907705  0.23796993  0.49262572    -0.02300
C618        C  0.25995871  0.25793201  0.48081699     0.07400
C619        C  0.29243786  0.27999410  0.49074807    -0.02400
C620        C  0.29395185  0.28229731  0.51225367    -0.02400
C621        C  0.26299622  0.26289763  0.52406010     0.07500
C622        C  0.23056890  0.24051678  0.51415305    -0.02600
Br623      Br  0.18753202  0.21496396  0.52995140    -0.01200
Br624      Br  0.18410931  0.20888238  0.47934585    -0.01200
Br625      Br  0.33895904  0.31081116  0.52550566    -0.01200
Br626      Br  0.33541838  0.30627743  0.47497852    -0.01200
C627        C  0.21267623  0.46798115  0.51140769    -0.02300
C628        C  0.24476434  0.98621043  0.52218646     0.07400
C629        C  0.27661411  0.00413471  0.51093701    -0.02400
C630        C  0.27602493  0.00325047  0.48937557    -0.02400
C631        C  0.24360101  0.98399259  0.47880609     0.07500
C632        C  0.21330355  0.46546795  0.48989475    -0.02600
Br633      Br  0.16968226  0.43600200  0.47539457    -0.01200
Br634      Br  0.16827022  0.44137425  0.52586126    -0.01200
Br635      Br  0.32012240  0.02725818  0.47438779    -0.01200
Br636      Br  0.32149284  0.02803344  0.52507128    -0.01200
C637        C  0.03105753  0.29806995  0.51033307    -0.02300
C638        C  0.00710053  0.26885764  0.52230518     0.07400
C639        C  0.48258480  0.23760225  0.51220627    -0.02400
C640        C  0.48503929  0.23375048  0.49098913    -0.02400
C641        C  0.00876728  0.26267658  0.47883110     0.07500
C642        C  0.03126775  0.29534965  0.48879853    -0.02600
Br643      Br  0.06421835  0.33723267  0.47373935    -0.01200
Br644      Br  0.06448464  0.34246382  0.52293545    -0.01200
Br645      Br  0.45554297  0.18702397  0.47965977    -0.01200
Br646      Br  0.44273192  0.20003997  0.52679191    -0.01200
C647        C  0.40774737  0.27406738  0.40247473    -0.02300
C648        C  0.41507083  0.25508934  0.41728655     0.07400
C649        C  0.38981649  0.23646701  0.43275353    -0.02400
C650        C  0.35769347  0.23682539  0.43341875    -0.02400
C651        C  0.35046173  0.25572763  0.41861718     0.07500
C652        C  0.37552124  0.27431596  0.40313237    -0.02600
Br653      Br  0.36483189  0.29848191  0.38204784    -0.01200
Br654      Br  0.44082557  0.29821107  0.38050539    -0.01200
Br655      Br  0.32426535  0.21273701  0.45529319    -0.01200
Br656      Br  0.39955233  0.21182509  0.45387042    -0.01200
C657        C  0.10553358  0.23211940  0.40415691    -0.02300
C658        C  0.09958962  0.25358459  0.41788597     0.07400
C659        C  0.12590503  0.27420500  0.43234777    -0.02400
C660        C  0.15830815  0.27433007  0.43264677    -0.02400
C661        C  0.16449887  0.25340947  0.41868260     0.07500
C662        C  0.13776448  0.23184755  0.40465071    -0.02600
Br663      Br  0.14563445  0.20281875  0.38546913    -0.01200
Br664      Br  0.07021918  0.20408875  0.38398181    -0.01200
Br665      Br  0.19334432  0.30153446  0.45314560    -0.01200
Br666      Br  0.11675508  0.30033850  0.45286297    -0.01200
C667        C  0.99908610  0.46076098  0.51062138    -0.02300
C668        C  0.98991265  0.97941312  0.52115475     0.07400
C669        C  0.47877699  0.99982803  0.50995871    -0.02400
C670        C  0.47775926  0.99870520  0.48840336    -0.02400
C671        C  0.98831878  0.97766030  0.47760273     0.07500
C672        C  0.00027282  0.45966519  0.48900153    -0.02600
Br673      Br  0.01573670  0.43005005  0.47593247    -0.01200
Br674      Br  0.01231491  0.43197552  0.52654471    -0.01200
Br675      Br  0.45990742  0.02497076  0.47376027    -0.01200
Br676      Br  0.46314897  0.02850684  0.52410402    -0.01200
C677        C  0.39388798  0.00332727  0.40156173    -0.02300
C678        C  0.39874625  0.98118444  0.41527587     0.07400
C679        C  0.37731856  0.46274713  0.43024080    -0.02400
C680        C  0.34521140  0.46321096  0.43085110    -0.02400
C681        C  0.33595313  0.98536314  0.41673197     0.07500
C682        C  0.36282442  0.00574658  0.40243565    -0.02600
Br683      Br  0.35675826  0.03600839  0.38335094    -0.01200
Br684      Br  0.42867442  0.02848869  0.38048859    -0.01200
Br685      Br  0.31043464  0.43625578  0.45157634    -0.01200
Br686      Br  0.38598492  0.43530380  0.45015381    -0.01200
C687        C  0.12596987  0.45990424  0.40291516    -0.02300
C688        C  0.15087611  0.98548442  0.41648748     0.07400
C689        C  0.14230044  0.00211877  0.43218019    -0.02400
C690        C  0.10942663  0.00106954  0.43202564    -0.02400
C691        C  0.08500787  0.98360633  0.41610061     0.07500
C692        C  0.09352811  0.45974496  0.40258879    -0.02600
Br693      Br  0.05729852  0.42954235  0.38338255    -0.01200
Br694      Br  0.13355969  0.43045345  0.38387606    -0.01200
Br695      Br  0.09718120  0.02214489  0.45424214    -0.01200
Br696      Br  0.17464268  0.02457167  0.45462429    -0.01200
C697        C  0.23043529  0.25798501  0.17969111    -0.02300
C698        C  0.25201201  0.24719132  0.18988289     0.07400
C699        C  0.27227868  0.23635506  0.17826501    -0.02400
C700        C  0.27090308  0.23621536  0.15668587    -0.02400
C701        C  0.24959993  0.24735354  0.14647074     0.07500
C702        C  0.22927974  0.25813621  0.15812335    -0.02600
Br703      Br  0.20107918  0.27498329  0.14466734    -0.01200
Br704      Br  0.20380303  0.27456528  0.19523090    -0.01200
Br705      Br  0.29658867  0.21852449  0.14121237    -0.01200
Br706      Br  0.30069697  0.21993668  0.19187029    -0.01200
C707        C  0.24599652  0.21987760  0.32458851    -0.02300
C708        C  0.25753782  0.25105146  0.31331450     0.07400
C709        C  0.27029214  0.28331175  0.32363937    -0.02400
C710        C  0.27018293  0.28439459  0.34522957    -0.02400
C711        C  0.25885160  0.25297730  0.35690710     0.07500
C712        C  0.24818376  0.22089286  0.34613022    -0.02600
Br713      Br  0.23911277  0.17807150  0.35994429    -0.01200
Br714      Br  0.22763857  0.17549725  0.31030039    -0.01200
Br715      Br  0.28543836  0.32981958  0.35782834    -0.01200
Br716      Br  0.28673428  0.32615086  0.30793870    -0.01200
C717        C  0.27232330  0.39816018  0.23680375    -0.02300
C718        C  0.24893495  0.40280996  0.24975116     0.07400
C719        C  0.22599327  0.37496183  0.26284096    -0.02400
C720        C  0.22741450  0.34343465  0.26353121    -0.02400
C721        C  0.25095202  0.33885338  0.25064534     0.07500
C722        C  0.27304318  0.36628425  0.23707769    -0.02600
Br723      Br  0.30308105  0.35978642  0.21783770    -0.01200
Br724      Br  0.30229741  0.43474937  0.21771345    -0.01200
Br725      Br  0.19855962  0.30759832  0.28327430    -0.01200
Br726      Br  0.19343647  0.38020607  0.28065433    -0.01200
C727        C  0.27978100  0.11966616  0.26519593    -0.02300
C728        C  0.25880539  0.09308119  0.25093527     0.07400
C729        C  0.23861879  0.09956065  0.23650831    -0.02400
C730        C  0.23803383  0.13148274  0.23694924    -0.02400
C731        C  0.25868412  0.15793018  0.25133109     0.07500
C732        C  0.28018281  0.15214492  0.26516304    -0.02600
Br733      Br  0.30929993  0.18807345  0.28472427    -0.01200
Br734      Br  0.30662114  0.11111968  0.28562611    -0.01200
Br735      Br  0.21010984  0.13949312  0.21700090    -0.01200
Br736      Br  0.21361147  0.06578110  0.21506660    -0.01200
C737        C  0.27823075  0.03431144  0.17833002    -0.02300
C738        C  0.25937817  0.00205139  0.18894176     0.07400
C739        C  0.23404951  0.46759409  0.17783821    -0.02400
C740        C  0.23295144  0.46849799  0.15631017    -0.02400
C741        C  0.25719085  0.00337901  0.14568529     0.07500
C742        C  0.27707412  0.03498300  0.15677648    -0.02600
Br743      Br  0.30101659  0.07957539  0.14255813    -0.01200
Br744      Br  0.30437243  0.07789213  0.19330379    -0.01200
Br745      Br  0.20711866  0.42493796  0.14125600    -0.01200
Br746      Br  0.21085727  0.42279309  0.19189043    -0.01200
C747        C  0.26208303  0.46974915  0.34374443    -0.02300
C748        C  0.24702067  0.99041130  0.35536021     0.07400
C749        C  0.23263254  0.00834118  0.34462109    -0.02400
C750        C  0.23410963  0.00993206  0.32308402    -0.02400
C751        C  0.25119471  0.99481065  0.31215692     0.07500
C752        C  0.26322485  0.47276962  0.32223680    -0.02600
Br753      Br  0.28622296  0.45268346  0.30634325    -0.01200
Br754      Br  0.28490550  0.44709726  0.35713870    -0.01200
Br755      Br  0.21345952  0.03371655  0.30857519    -0.01200
Br756      Br  0.21030878  0.03037084  0.35932474    -0.01200
C757        C  0.46286689  0.23110324  0.15519326    -0.02300
C758        C  0.99405463  0.24106236  0.14334560     0.07400
C759        C  0.02646012  0.25316408  0.15407761    -0.02400
C760        C  0.02737579  0.25315998  0.17571373    -0.02400
C761        C  0.99551872  0.23982713  0.18740299     0.07500
C762        C  0.46322013  0.22935460  0.17678510    -0.02600
Br763      Br  0.41918080  0.21548815  0.19121454    -0.01200
Br764      Br  0.41892681  0.22194019  0.14233773    -0.01200
Br765      Br  0.07342016  0.27150180  0.18862785    -0.01200
Br766      Br  0.07132572  0.26980942  0.13985724    -0.01200
C767        C  0.03446927  0.26310058  0.32238800    -0.02300
C768        C  0.00158813  0.24270687  0.31191160     0.07400
C769        C  0.47018894  0.22501411  0.32381171    -0.02400
C770        C  0.47171404  0.22766874  0.34534750    -0.02400
C771        C  0.00411349  0.24683063  0.35547506     0.07500
C772        C  0.03551663  0.26451474  0.34395476    -0.02600
Br773      Br  0.08061177  0.28992487  0.35792702    -0.01200
Br774      Br  0.07913882  0.29053927  0.30814997    -0.01200
Br775      Br  0.42837254  0.20540297  0.36122515    -0.01200
Br776      Br  0.42427033  0.19437075  0.31172569    -0.01200
C777        C  0.01246351  0.35665108  0.26469699    -0.02300
C778        C  0.49650737  0.33165500  0.24854334     0.07400
C779        C  0.47952383  0.33897800  0.23243148    -0.02400
C780        C  0.47835703  0.37067511  0.23223885    -0.02400
C781        C  0.49456640  0.39567715  0.24800988     0.07500
C782        C  0.01123215  0.38830338  0.26434696    -0.02600
Br783      Br  0.03135605  0.42132362  0.28668550    -0.01200
Br784      Br  0.03530271  0.34735584  0.28718603    -0.01200
Br785      Br  0.45564742  0.38044040  0.20987807    -0.01200
Br786      Br  0.45977657  0.30670308  0.20980714    -0.01200
C787        C  0.01816312  0.14069292  0.23431788    -0.02300
C788        C  0.49843808  0.14717872  0.25004715     0.07400
C789        C  0.47829980  0.12075673  0.26465277    -0.02400
C790        C  0.47679695  0.08774043  0.26398079    -0.02400
C791        C  0.49567774  0.08074092  0.24885456     0.07500
C792        C  0.01710922  0.10786415  0.23381918    -0.02600
Br793      Br  0.04166695  0.09828809  0.21235501    -0.01200
Br794      Br  0.04390582  0.17513440  0.21330581    -0.01200
Br795      Br  0.45005571  0.05259112  0.28450443    -0.01200
Br796      Br  0.45438521  0.13026059  0.28654400    -0.01200
C797        C  0.01098930  0.47194810  0.15235441    -0.02300
C798        C  0.98930652  0.98408887  0.14243417     0.07400
C799        C  0.47035582  0.99738500  0.15342156    -0.02400
C800        C  0.47124695  0.99824212  0.17500728    -0.02400
C801        C  0.99111414  0.98556239  0.18583812     0.07500
C802        C  0.01233439  0.47311138  0.17395257    -0.02600
Br803      Br  0.03797017  0.45425162  0.18825718    -0.01200
Br804      Br  0.03331210  0.45008087  0.13747989    -0.01200
Br805      Br  0.44747017  0.01886905  0.18964457    -0.01200
Br806      Br  0.44430208  0.01566640  0.13896275    -0.01200
C807        C  0.02411080  0.00872461  0.34286863    -0.02300
C808        C  0.99303611  0.98573900  0.35375901     0.07400
C809        C  0.46518066  0.46494615  0.34220786    -0.02400
C810        C  0.46526045  0.46487990  0.32058843    -0.02400
C811        C  0.99303136  0.98651969  0.31001693     0.07500
C812        C  0.02403502  0.00976950  0.32124617    -0.02600
Br813      Br  0.06702116  0.04432691  0.30771212    -0.01200
Br814      Br  0.06767141  0.03794113  0.35756615    -0.01200
Br815      Br  0.42187850  0.43115379  0.30709924    -0.01200
Br816      Br  0.42094534  0.43834351  0.35688989    -0.01200
O817        O  0.46306708  0.97412452  0.27699356    -0.72200
O818        O  0.46243547  0.97223436  0.21868728    -0.72500
O819        O  0.46047267  0.92834270  0.24831010    -0.72300
O820        O  0.46804075  0.51912743  0.24695672    -0.72300
O821        O  0.02537121  0.54640952  0.24685459    -0.72300
O822        O  0.01859989  0.95510077  0.24735108    -0.72300
O823        O  0.02377163  0.50189873  0.21757986    -0.72300
O824        O  0.02451796  0.50184790  0.27596661    -0.72400
V825        V  0.46375978  0.97352440  0.24784609     1.35200
V826        V  0.02313713  0.50163257  0.24679154     1.35200
C827        C  0.99611191  0.48855634  0.28628060     0.77000
C828        C  0.99479192  0.48757738  0.20784774     0.77000
C829        C  0.48853490  0.92642856  0.24801953     0.76900
C830        C  0.49709882  0.54800960  0.24702327     0.76900
O831        O  0.46798401  0.72339308  0.27925584    -0.72200
O832        O  0.46331654  0.72268133  0.22104294    -0.72500
O833        O  0.46775900  0.68049700  0.24962944    -0.72300
O834        O  0.46304826  0.76516711  0.25062220    -0.72300
O835        O  0.02045506  0.79581617  0.24848497    -0.72300
O836        O  0.02475384  0.71069262  0.24882112    -0.72300
O837        O  0.02036289  0.75179431  0.21960342    -0.72300
O838        O  0.02473172  0.75530063  0.27775699    -0.72400
V839        V  0.46664548  0.72349550  0.25011812     1.35200
V840        V  0.02148720  0.75273098  0.24870434     1.35200
C841        C  0.99709310  0.74022168  0.28867858     0.77000
C842        C  0.99088914  0.73722012  0.21041753     0.77000
C843        C  0.99668639  0.68088361  0.24910638     0.76900
C844        C  0.99102924  0.79498731  0.24965517     0.76900
O845        O  0.28028455  0.55383948  0.25158592    -0.72200
O846        O  0.28328987  0.96874091  0.25095189    -0.72500
O847        O  0.28089255  0.51125190  0.22210328    -0.72300
O848        O  0.27756769  0.50803437  0.28033695    -0.72300
O849        O  0.22507392  0.98392720  0.27898567    -0.72300
O850        O  0.22914670  0.98730164  0.22095684    -0.72300
O851        O  0.22592148  0.94152101  0.24942735    -0.72300
O852        O  0.22285298  0.52637596  0.25102680    -0.72400
V853        V  0.27813711  0.50926264  0.25120655     1.35200
V854        V  0.22832861  0.98621821  0.24998271     1.35200
C855        C  0.25194598  0.55522966  0.25132833     0.77000
C856        C  0.25418779  0.94001881  0.25013706     0.77000
C857        C  0.25264286  0.49817729  0.21173712     0.76900
C858        C  0.24821718  0.49284304  0.28971072     0.76900
O859        O  0.22518247  0.77739139  0.25112946    -0.72200
O860        O  0.22532657  0.69036068  0.25151467    -0.72500
O861        O  0.22482101  0.73393969  0.28049550    -0.72300
O862        O  0.22561532  0.73398184  0.22223418    -0.72300
O863        O  0.28314068  0.76317701  0.22240332    -0.72300
O864        O  0.28238925  0.76198170  0.28065715    -0.72300
O865        O  0.28277263  0.71890697  0.25113554    -0.72300
O866        O  0.28258174  0.80592229  0.25193898    -0.72400
V867        V  0.22635672  0.73443792  0.25135888     1.35200
V868        V  0.28159913  0.76190149  0.25153650     1.35200
C869        C  0.25385981  0.80658997  0.25147064     0.77000
C870        C  0.25406641  0.68970142  0.25124699     0.77000
C871        C  0.25349728  0.74815399  0.29046919     0.76900
C872        C  0.25449471  0.74890225  0.21239052     0.76900
O873        O  0.05362831  0.51115289  0.41492004    -0.72200
O874        O  0.46667738  0.51156556  0.41591637    -0.72500
O875        O  0.01002302  0.51030526  0.44450337    -0.72300
O876        O  0.01011209  0.51243670  0.38627753    -0.72300
O877        O  0.47891125  0.95498413  0.38592309    -0.72300
O878        O  0.47581842  0.95083528  0.44415258    -0.72300
O879        O  0.43345972  0.95249525  0.41465527    -0.72300
O880        O  0.02168473  0.95393128  0.41531048    -0.72400
V881        V  0.00957346  0.51023036  0.41537462     1.35200
V882        V  0.47799020  0.95408961  0.41502856     1.35200
C883        C  0.05411979  0.48252534  0.41524770     0.77000
C884        C  0.43740944  0.48305883  0.41520115     0.77000
C885        C  0.99415242  0.48148357  0.45421650     0.76900
C886        C  0.99653740  0.48424091  0.37596212     0.76900
O887        O  0.03625608  0.73161439  0.41787217    -0.72200
O888        O  0.44968717  0.73268060  0.41819316    -0.72500
O889        O  0.49026270  0.72746907  0.38897421    -0.72300
O890        O  0.49552506  0.73643497  0.44682513    -0.72300
O891        O  0.02402485  0.79365781  0.44425496    -0.72300
O892        O  0.02078545  0.78521912  0.38613268    -0.72300
O893        O  0.47886845  0.78958862  0.41504519    -0.72300
O894        O  0.06578902  0.78863801  0.41548588    -0.72400
V895        V  0.49340991  0.73298546  0.41789368     1.35200
V896        V  0.02193854  0.78839137  0.41525316     1.35200
C897        C  0.06575146  0.75978124  0.41687223     0.77000
C898        C  0.44948068  0.76137346  0.41685866     0.77000
C899        C  0.00488409  0.75520364  0.37770065     0.76900
C900        C  0.01045189  0.76674192  0.45565893     0.76900
O901        O  0.22847308  0.95633809  0.44570448    -0.72200
O902        O  0.23096350  0.95948577  0.38734135    -0.72500
O903        O  0.27300347  0.95768279  0.41665685    -0.72300
O904        O  0.18589221  0.95755344  0.41622042    -0.72300
O905        O  0.21643485  0.51164391  0.41656067    -0.72300
O906        O  0.30422734  0.51266449  0.41739617    -0.72300
O907        O  0.26070850  0.51206417  0.38802040    -0.72300
O908        O  0.25979182  0.51273675  0.44605576    -0.72400
V909        V  0.23011357  0.95888878  0.41651813     1.35200
V910        V  0.25978405  0.51113269  0.41703280     1.35200
C911        C  0.24580269  0.48442244  0.45623389     0.77000
C912        C  0.24608512  0.48347304  0.37813499     0.77000
C913        C  0.30502823  0.48416595  0.41725242     0.76900
C914        C  0.18737682  0.48284986  0.41679112     0.76900
O915        O  0.27091391  0.79005161  0.44656486    -0.72200
O916        O  0.27067332  0.78339095  0.38864143    -0.72500
O917        O  0.22680415  0.78630607  0.41668339    -0.72300
O918        O  0.31436782  0.78720788  0.41843261    -0.72300
O919        O  0.28605580  0.72998063  0.41867045    -0.72300
O920        O  0.19857267  0.72950447  0.42069170    -0.72300
O921        O  0.23913680  0.72671476  0.39060830    -0.72300
O922        O  0.24521787  0.73301370  0.44877389    -0.72400
V923        V  0.27008308  0.78563454  0.41762919     1.35200
V924        V  0.24281293  0.73084519  0.41966009     1.35200
C925        C  0.25867789  0.76269970  0.45755997     0.77000
C926        C  0.25438735  0.75404983  0.37955404     0.77000
C927        C  0.19775884  0.75779940  0.41866085     0.76900
C928        C  0.31515436  0.75875111  0.41840879     0.76900
O929        O  0.46117609  0.97561520  0.05144291    -0.72200
O930        O  0.46081832  0.97038658  0.10965289    -0.72500
O931        O  0.46134170  0.51633868  0.08189267    -0.72300
O932        O  0.46160868  0.92969848  0.07890105    -0.72300
O933        O  0.01863905  0.95847728  0.07948688    -0.72300
O934        O  0.01883001  0.54588078  0.08139932    -0.72300
O935        O  0.02034141  0.50054666  0.10877936    -0.72300
O936        O  0.01929954  0.50569205  0.05061146    -0.72400
V937        V  0.46212712  0.97341113  0.08054632     1.35200
V938        V  0.01867778  0.50232535  0.07968521     1.35200
C939        C  0.99032919  0.49246793  0.04094311     0.77000
C940        C  0.99174246  0.48550083  0.11889190     0.77000
C941        C  0.98976409  0.54587917  0.08198638     0.76900
C942        C  0.99008331  0.92914072  0.07910507     0.76900
O943        O  0.46140145  0.67991080  0.08315121    -0.72200
O944        O  0.46237329  0.76729907  0.08070564    -0.72500
O945        O  0.46311979  0.72232909  0.05288373    -0.72300
O946        O  0.46071886  0.72481735  0.11109713    -0.72300
O947        O  0.01769776  0.75128154  0.11190299    -0.72300
O948        O  0.02058908  0.75185872  0.05378843    -0.72300
O949        O  0.01954147  0.79547986  0.08258936    -0.72300
O950        O  0.01859750  0.70789846  0.08295708    -0.72400
V951        V  0.46301234  0.72415640  0.08198771     1.35200
V952        V  0.01798661  0.75112478  0.08281125     1.35200
C953        C  0.98969292  0.67890387  0.08308346     0.77000
C954        C  0.99098377  0.79637962  0.08138611     0.77000
C955        C  0.49236047  0.73656121  0.04340270     0.76900
C956        C  0.48906285  0.73813421  0.12139822     0.76900
O957        O  0.22584127  0.98514546  0.05524786    -0.72200
O958        O  0.22729635  0.98929058  0.11342037    -0.72500
O959        O  0.22134915  0.52852172  0.08255749    -0.72300
O960        O  0.22849133  0.94507961  0.08525105    -0.72300
O961        O  0.28589126  0.97531562  0.08352249    -0.72300
O962        O  0.27874673  0.55841548  0.08407845    -0.72300
O963        O  0.28016862  0.51540462  0.11313842    -0.72300
O964        O  0.28021469  0.51529653  0.05499598    -0.72400
V965        V  0.22758038  0.98801717  0.08431797     1.35200
V966        V  0.27900536  0.51486083  0.08407214     1.35200
C967        C  0.25190587  0.49765785  0.04497557     0.77000
C968        C  0.25144311  0.50161531  0.12310143     0.77000
C969        C  0.24953033  0.55812876  0.08319336     0.76900
C970        C  0.25775659  0.94560813  0.08435000     0.76900
O971        O  0.27634799  0.76480482  0.05468538    -0.72200
O972        O  0.28052666  0.76274929  0.11297860    -0.72500
O973        O  0.27693334  0.71939221  0.08259574    -0.72300
O974        O  0.28076333  0.80816098  0.08501188    -0.72300
O975        O  0.22335185  0.78163489  0.08543055    -0.72300
O976        O  0.21965680  0.69242338  0.08487040    -0.72300
O977        O  0.22317131  0.73742189  0.11424537    -0.72300
O978        O  0.21940022  0.73642684  0.05615441    -0.72400
V979        V  0.27753891  0.76319287  0.08385071     1.35200
V980        V  0.22249064  0.73748583  0.08516829     1.35200
C981        C  0.24706482  0.75102429  0.04527183     0.77000
C982        C  0.25241370  0.75009859  0.12355841     0.77000
C983        C  0.24779621  0.69070515  0.08347661     0.76900
C984        C  0.25280802  0.81018258  0.08528229     0.76900
O985        O  0.01769708  0.57183952  0.91647577    -0.72200
O986        O  0.43159917  0.98498519  0.91485609    -0.72500
O987        O  0.47365595  0.52538827  0.94468928    -0.72300
O988        O  0.47342596  0.53287834  0.88655779    -0.72300
O989        O  0.00338999  0.00198084  0.88440304    -0.72300
O990        O  0.00411523  0.99440623  0.94226436    -0.72300
O991        O  0.45914993  0.95531813  0.91252863    -0.72300
O992        O  0.04558220  0.54250468  0.91355350    -0.72400
V993        V  0.47395967  0.52854844  0.91556413     1.35200
V994        V  0.00305936  0.99874961  0.91338976     1.35200
C995        C  0.04668772  0.57188336  0.91508522     0.77000
C996        C  0.43016948  0.95547087  0.91369033     0.77000
C997        C  0.98787790  0.50911390  0.95309838     0.76900
C998        C  0.98779393  0.51953209  0.87540756     0.76900
O999        O  0.48115332  0.74098587  0.94308528    -0.72200
O1000       O  0.49437150  0.74900068  0.88545078    -0.72500
O1001       O  0.44722102  0.69982366  0.91094452    -0.72300
O1002       O  0.02847203  0.79019773  0.91780929    -0.72300
O1003       O  0.06147867  0.76632957  0.91531096    -0.72300
O1004       O  0.47895516  0.67576434  0.91779774    -0.72300
O1005       O  0.02065761  0.71785739  0.88725562    -0.72300
O1006       O  0.01996019  0.72445836  0.94537104    -0.72400
V1007       V  0.48836630  0.74465292  0.91430965     1.35200
V1008       V  0.01966542  0.72138355  0.91632535     1.35200
C1009       C  0.49968099  0.73301494  0.95433751     0.77000
C1010       C  0.50875244  0.73377501  0.87639614     0.77000
C1011       C  0.44866826  0.67221729  0.91466803     0.76900
C1012       C  0.05916524  0.79386025  0.91749379     0.76900
O1013       O  0.22032911  0.92610295  0.91706521    -0.72200
O1014       O  0.31375612  0.50798375  0.91982276    -0.72500
O1015       O  0.26197712  0.96822183  0.94723786    -0.72300
O1016       O  0.26846700  0.96836934  0.88907193    -0.72300
O1017       O  0.23967214  0.49051329  0.88743739    -0.72300
O1018       O  0.24590889  0.50188937  0.94520082    -0.72300
O1019       O  0.28752431  0.53779192  0.91336660    -0.72300
O1020       O  0.19454825  0.95728522  0.91988756    -0.72400
V1021       V  0.26471748  0.96873529  0.91814387     1.35200
V1022       V  0.24334057  0.49564822  0.91636646     1.35200
C1023       C  0.19198004  0.92723909  0.91908783     0.77000
C1024       C  0.31601588  0.53757106  0.91672009     0.77000
C1025       C  0.25536939  0.48429117  0.95620553     0.76900
C1026       C  0.25637599  0.47779116  0.87829040     0.76900
O1027       O  0.26656266  0.82179607  0.91852018    -0.72200
O1028       O  0.17952489  0.73439226  0.91868480    -0.72500
O1029       O  0.22541157  0.77568074  0.94777885    -0.72300
O1030       O  0.22097658  0.78066049  0.88969824    -0.72300
O1031       O  0.25085116  0.75330623  0.88673257    -0.72300
O1032       O  0.25357751  0.74667498  0.94456073    -0.72300
O1033       O  0.20859443  0.70635537  0.91505867    -0.72300
O1034       O  0.29562941  0.79365033  0.91617038    -0.72400
V1035       V  0.22363876  0.77755528  0.91865889     1.35200
V1036       V  0.25156310  0.75053326  0.91570416     1.35200
C1037       C  0.29600721  0.82273064  0.91705482     0.77000
C1038       C  0.17918951  0.70544965  0.91673636     0.77000
C1039       C  0.24016915  0.76017334  0.95606934     0.76900
C1040       C  0.23575033  0.76831976  0.87834194     0.76900
O1041       O  0.48166784  0.95695965  0.55576294    -0.72200
O1042       O  0.48594184  0.97041214  0.61380043    -0.72500
O1043       O  0.43964453  0.96203005  0.58420520    -0.72300
O1044       O  0.02814401  0.96444950  0.58561142    -0.72300
O1045       O  0.05233361  0.52441280  0.57986596    -0.72300
O1046       O  0.46455683  0.52379539  0.58033869    -0.72300
O1047       O  0.01212183  0.53058345  0.60879364    -0.72300
O1048       O  0.00546481  0.51805740  0.55120644    -0.72400
V1049       V  0.48448086  0.96453778  0.58474447     1.35200
V1050       V  0.00805501  0.52315383  0.58009829     1.35200
C1051       C  0.99140948  0.48772393  0.54323375     0.77000
C1052       C  0.99761223  0.50486861  0.62099360     0.77000
C1053       C  0.43546730  0.49514081  0.58186876     0.76900
C1054       C  0.05318582  0.49629427  0.58279514     0.76900
O1055       O  0.45275808  0.74209064  0.58232275    -0.72200
O1056       O  0.03965630  0.74153927  0.58384544    -0.72500
O1057       O  0.49324020  0.73835477  0.61220794    -0.72300
O1058       O  0.49904707  0.74434847  0.55457050    -0.72300
O1059       O  0.02323982  0.80120138  0.55617833    -0.72300
O1060       O  0.02596285  0.79540555  0.61441807    -0.72300
O1061       O  0.06816466  0.79850267  0.58379148    -0.72300
O1062       O  0.48173909  0.79850462  0.58724002    -0.72400
V1063       V  0.49664787  0.74257590  0.58333146     1.35200
V1064       V  0.02433236  0.79743943  0.58534407     1.35200
C1065       C  0.45248277  0.77062645  0.58473166     0.77000
C1066       C  0.06892848  0.77006688  0.58350445     0.77000
C1067       C  0.00927744  0.76572270  0.62315218     0.76900
C1068       C  0.01078806  0.77353446  0.54533671     0.76900
O1069       O  0.25747697  0.52191850  0.55427386    -0.72200
O1070       O  0.26033343  0.52519357  0.61269362    -0.72500
O1071       O  0.30192784  0.52287198  0.58308235    -0.72300
O1072       O  0.21564927  0.52478307  0.58377596    -0.72300
O1073       O  0.18974187  0.96553021  0.58465250    -0.72300
O1074       O  0.27493630  0.96126586  0.58485667    -0.72300
O1075       O  0.23320632  0.96584627  0.61364673    -0.72300
O1076       O  0.23114259  0.96067631  0.55565863    -0.72400
V1077       V  0.25820985  0.52263154  0.58348224     1.35200
V1078       V  0.23285276  0.96445722  0.58466062     1.35200
C1079       C  0.24351092  0.49263891  0.54495596     0.77000
C1080       C  0.24530890  0.49701380  0.62308913     0.77000
C1081       C  0.30191167  0.49403661  0.58406932     0.76900
C1082       C  0.18615930  0.49647277  0.58378404     0.76900
O1083       O  0.27823874  0.80337219  0.55514709    -0.72200
O1084       O  0.27797893  0.80792942  0.61332566    -0.72500
O1085       O  0.32222117  0.80664883  0.58535961    -0.72300
O1086       O  0.23361455  0.80388465  0.58374742    -0.72300
O1087       O  0.20675255  0.74698472  0.58389957    -0.72300
O1088       O  0.29447519  0.74979578  0.58705370    -0.72300
O1089       O  0.24920711  0.75070600  0.61475071    -0.72300
O1090       O  0.25180834  0.74626133  0.55667623    -0.72400
V1091       V  0.27752597  0.80442277  0.58433999     1.35200
V1092       V  0.25116806  0.74958440  0.58562515     1.35200
C1093       C  0.26482109  0.77400380  0.54599565     0.77000
C1094       C  0.26329625  0.78009714  0.62389753     0.77000
C1095       C  0.32345914  0.77849004  0.58687143     0.76900
C1096       C  0.20486246  0.77476227  0.58348156     0.76900
O1097       O  0.47528137  0.97309964  0.75111533    -0.72200
O1098       O  0.06105091  0.56057961  0.74979084    -0.72500
O1099       O  0.01749838  0.01986712  0.77939342    -0.72300
O1100       O  0.02027661  0.01324090  0.72167363    -0.72300
O1101       O  0.48942251  0.54289588  0.71815362    -0.72300
O1102       O  0.48752174  0.54932214  0.77627918    -0.72300
O1103       O  0.03291490  0.58954431  0.74646192    -0.72300
O1104       O  0.44638157  0.00145807  0.74839619    -0.72400
V1105       V  0.01842416  0.01739246  0.75049253     1.35200
V1106       V  0.48930739  0.54594170  0.74724701     1.35200
C1107       C  0.44592159  0.97247970  0.75004551     0.77000
C1108       C  0.06203060  0.58990300  0.74819949     0.77000
C1109       C  0.00011400  0.53447064  0.78733905     0.76900
C1110       C  0.00378542  0.52692211  0.70962715     0.76900
O1111       O  0.01708523  0.72720197  0.71883083    -0.72200
O1112       O  0.02342718  0.72408577  0.77664186    -0.72500
O1113       O  0.47654799  0.68240829  0.74832796    -0.72300
O1114       O  0.06403559  0.76901466  0.74709601    -0.72300
O1115       O  0.03580932  0.79776746  0.75126665    -0.72300
O1116       O  0.44811127  0.71132184  0.75043930    -0.72300
O1117       O  0.49351530  0.75159126  0.77962004    -0.72300
O1118       O  0.49085765  0.75804699  0.72192842    -0.72400
V1119       V  0.01968334  0.72615961  0.74778303     1.35200
V1120       V  0.49256047  0.75408807  0.75072619     1.35200
C1121       C  0.00387911  0.74408798  0.71052655     0.77000
C1122       C  0.00933039  0.73709046  0.78799041     0.77000
C1123       C  0.44738610  0.68207286  0.74960106     0.76900
C1124       C  0.06491931  0.79821702  0.74910361     0.76900
O1125       O  0.27053083  0.97364177  0.77915182    -0.72200
O1126       O  0.27194722  0.98111444  0.72127975    -0.72500
O1127       O  0.31404416  0.52108138  0.75081910    -0.72300
O1128       O  0.22812489  0.93311198  0.74873127    -0.72300
O1129       O  0.19791194  0.96003628  0.75178926    -0.72300
O1130       O  0.28413700  0.54849936  0.75298972    -0.72300
O1131       O  0.23860462  0.50671365  0.72375604    -0.72300
O1132       O  0.24284854  0.50121160  0.78174819    -0.72400
V1133       V  0.27053584  0.97781712  0.75022029     1.35200
V1134       V  0.24156541  0.50371398  0.75270974     1.35200
C1135       C  0.25729919  0.48537137  0.78993795     0.77000
C1136       C  0.25385036  0.49508903  0.71223650     0.77000
C1137       C  0.31382012  0.54980839  0.75186877     0.76900
C1138       C  0.19829786  0.93144595  0.74993561     0.76900
O1139       O  0.23447823  0.79593561  0.77932324    -0.72200
O1140       O  0.24255493  0.79752662  0.72134699    -0.72500
O1141       O  0.19530905  0.75289929  0.74880451    -0.72300
O1142       O  0.28189367  0.84061174  0.75160327    -0.72300
O1143       O  0.31117507  0.81250310  0.75329523    -0.72300
O1144       O  0.22451951  0.72490377  0.75134733    -0.72300
O1145       O  0.27094676  0.76863644  0.72328590    -0.72300
O1146       O  0.26436518  0.76847180  0.78130633    -0.72400
V1147       V  0.23915842  0.79623233  0.75033194     1.35200
V1148       V  0.26725654  0.76925739  0.75228351     1.35200
C1149       C  0.24755838  0.78136384  0.79017719     0.77000
C1150       C  0.25776086  0.78305572  0.71238575     0.77000
C1151       C  0.19506083  0.72387368  0.74975092     0.76900
C1152       C  0.31134524  0.84147704  0.75254657     0.76900
C1153       C  0.38922111  0.64096836  0.76653959    -0.02300
C1154       C  0.41321451  0.64825008  0.75022169     0.07400
C1155       C  0.40441929  0.62309292  0.73452495    -0.02400
C1156       C  0.37184174  0.59113435  0.73504181    -0.02400
C1157       C  0.34765606  0.58398207  0.75125205     0.07500
C1158       C  0.35639525  0.60920206  0.76691823    -0.02600
Br1159     Br  0.32408578  0.59978819  0.78939692    -0.01200
Br1160     Br  0.40239061  0.67339658  0.78920670    -0.01200
Br1161     Br  0.35956189  0.55797421  0.71279362    -0.01200
Br1162     Br  0.43639947  0.63291237  0.71178960    -0.01200
C1163       C  0.12737695  0.83643782  0.76167766    -0.02300
C1164       C  0.09922652  0.83209709  0.74902174     0.07400
C1165       C  0.10406174  0.86023901  0.73629093    -0.02400
C1166       C  0.13643699  0.89250662  0.73648292    -0.02400
C1167       C  0.16456199  0.89695084  0.74926156     0.07500
C1168       C  0.15997234  0.86845448  0.76162041    -0.02600
Br1169     Br  0.19768016  0.87335496  0.77929081    -0.01200
Br1170     Br  0.12063384  0.79929680  0.78024207    -0.01200
Br1171     Br  0.14278120  0.92986760  0.71816750    -0.01200
Br1172     Br  0.06702162  0.85411030  0.71765033    -0.01200
C1173       C  0.38643602  0.93067597  0.73499963    -0.02300
C1174       C  0.41164476  0.93882192  0.75067385     0.07400
C1175       C  0.40334727  0.91535838  0.76727421    -0.02400
C1176       C  0.37016639  0.88406072  0.76817696    -0.02400
C1177       C  0.34532142  0.87550099  0.75227237     0.07500
C1178       C  0.35355449  0.89905852  0.73572093    -0.02600
Br1179     Br  0.32047441  0.88737840  0.71344982    -0.01200
Br1180     Br  0.39748442  0.96208249  0.71193977    -0.01200
Br1181     Br  0.35779098  0.85399042  0.79190724    -0.01200
Br1182     Br  0.43673097  0.92679306  0.78934317    -0.01200
C1183       C  0.13220584  0.68430569  0.76166903    -0.02300
C1184       C  0.16108732  0.68951772  0.74928180     0.07400
C1185       C  0.15740337  0.66156442  0.73669369    -0.02400
C1186       C  0.12511528  0.62915597  0.73624061    -0.02400
C1187       C  0.09628810  0.62397428  0.74865476     0.07500
C1188       C  0.10021811  0.65169590  0.76151115    -0.02600
Br1189     Br  0.06255854  0.64449919  0.78005527    -0.01200
Br1190     Br  0.13677852  0.72111189  0.77989492    -0.01200
Br1191     Br  0.11988124  0.59262195  0.71759262    -0.01200
Br1192     Br  0.19595452  0.66795597  0.71916427    -0.01200
C1193       C  0.29256892  0.78928328  0.65803220    -0.02300
C1194       C  0.26242786  0.78189284  0.64644070     0.07400
C1195       C  0.23137284  0.77624229  0.65640863    -0.02400
C1196       C  0.22949313  0.77553021  0.67790569    -0.02400
C1197       C  0.25958681  0.78272200  0.68968576     0.07500
C1198       C  0.29134302  0.79004611  0.67958590    -0.02600
Br1199     Br  0.33386542  0.80281062  0.69498610    -0.01200
Br1200     Br  0.33570087  0.79885206  0.64423501    -0.01200
Br1201     Br  0.18463523  0.76225355  0.69090790    -0.01200
Br1202     Br  0.19203229  0.77163381  0.64056837    -0.01200
C1203       C  0.25388350  0.02288206  0.67879600    -0.02300
C1204       C  0.25156064  0.49600926  0.68942893     0.07400
C1205       C  0.25093066  0.46867371  0.67749929    -0.02400
C1206       C  0.25057101  0.47007697  0.65598289    -0.02400
C1207       C  0.24756225  0.49709286  0.64590594     0.07500
C1208       C  0.25173106  0.02265022  0.65721871    -0.02600
Br1209     Br  0.24551868  0.05849316  0.64373996    -0.01200
Br1210     Br  0.25730492  0.06273483  0.69361440    -0.01200
Br1211     Br  0.25640346  0.43547031  0.64059503    -0.01200
Br1212     Br  0.24809221  0.42738718  0.69023701    -0.01200
C1213       C  0.38811849  0.74483094  0.59397945    -0.02300
C1214       C  0.41917177  0.77204200  0.58486438     0.07400
C1215       C  0.41916469  0.80225487  0.57716181    -0.02400
C1216       C  0.38902468  0.80594499  0.57927496    -0.02400
C1217       C  0.35751335  0.77824433  0.58787918     0.07500
C1218       C  0.35799356  0.74850630  0.59615500    -0.02600
Br1219     Br  0.31901231  0.71390739  0.61260036    -0.01200
Br1220     Br  0.38580828  0.70187846  0.60359870    -0.01200
Br1221     Br  0.39274329  0.85006602  0.57080602    -0.01200
Br1222     Br  0.45923353  0.83760064  0.56170605    -0.01200
C1223       C  0.10649695  0.74256900  0.59157608    -0.02300
C1224       C  0.10330242  0.77046157  0.58283878     0.07400
C1225       C  0.13338329  0.79901891  0.57354962    -0.02400
C1226       C  0.16635009  0.80034906  0.57368207    -0.02400
C1227       C  0.16978718  0.77292471  0.58287156     0.07500
C1228       C  0.13931214  0.74356467  0.59138534    -0.02600
Br1229     Br  0.14129956  0.70413247  0.60357061    -0.01200
Br1230     Br  0.06666089  0.70297583  0.60489096    -0.01200
Br1231     Br  0.20599952  0.83938439  0.55992720    -0.01200
Br1232     Br  0.13006485  0.83616327  0.55936096    -0.01200
C1233       C  0.47856287  0.75592679  0.65665843    -0.02300
C1234       C  0.00878942  0.76244808  0.64557757     0.07400
C1235       C  0.03757232  0.76307027  0.65565655    -0.02400
C1236       C  0.03579806  0.75632329  0.67679532    -0.02400
C1237       C  0.00495462  0.74888387  0.68802262     0.07500
C1238       C  0.47623011  0.74842432  0.67770942    -0.02600
Br1239     Br  0.43231834  0.73507680  0.69189304    -0.01200
Br1240     Br  0.44091944  0.75905967  0.64318830    -0.01200
Br1241     Br  0.07657269  0.75871418  0.69008251    -0.01200
Br1242     Br  0.07978099  0.77380260  0.64043397    -0.01200
C1243       C  0.37628722  0.96700845  0.56942035    -0.02300
C1244       C  0.40119952  0.49469669  0.58243236     0.07400
C1245       C  0.39519293  0.51458196  0.59727988    -0.02400
C1246       C  0.36255317  0.51396740  0.59800315    -0.02400
C1247       C  0.33567097  0.49357542  0.58380673     0.07500
C1248       C  0.34351322  0.96622895  0.56999027    -0.02600
Br1249     Br  0.30648346  0.93633855  0.55115987    -0.01200
Br1250     Br  0.38406808  0.93911835  0.54937430    -0.01200
Br1251     Br  0.35400377  0.53955217  0.61926845    -0.01200
Br1252     Br  0.43071502  0.54091395  0.61760294    -0.01200
C1253       C  0.09611929  0.48197418  0.59988124    -0.02300
C1254       C  0.08735727  0.49656688  0.58315069     0.07400
C1255       C  0.11619229  0.01075095  0.56792702    -0.02400
C1256       C  0.14910627  0.01188543  0.56835331    -0.02400
C1257       C  0.15255226  0.49710223  0.58370281     0.07500
C1258       C  0.12863389  0.48229587  0.60014987    -0.02600
Br1259     Br  0.14138619  0.46417831  0.62360276    -0.01200
Br1260     Br  0.06458471  0.46314978  0.62302536    -0.01200
Br1261     Br  0.18233664  0.03392026  0.54618927    -0.01200
Br1262     Br  0.10416751  0.02988330  0.54467215    -0.01200
C1263       C  0.49104715  0.97872806  0.65859684    -0.02300
C1264       C  0.99921861  0.51058594  0.64384890     0.07400
C1265       C  0.00937816  0.54451912  0.65221342    -0.02400
C1266       C  0.01046304  0.54962578  0.67360308    -0.02400
C1267       C  0.00216253  0.52150611  0.68709446     0.07500
C1268       C  0.49210544  0.98476468  0.67989608    -0.02600
Br1269     Br  0.47597232  0.94544975  0.69865948    -0.01200
Br1270     Br  0.47483717  0.93080759  0.64978137    -0.01200
Br1271     Br  0.02470208  0.59597232  0.68450498    -0.01200
Br1272     Br  0.02201096  0.58537292  0.63520041    -0.01200
C1273       C  0.22445991  0.74143112  0.84339731    -0.02300
C1274       C  0.23600580  0.77161424  0.85576209     0.07400
C1275       C  0.24949323  0.80501981  0.84644665    -0.02400
C1276       C  0.25251962  0.80828001  0.82495040    -0.02400
C1277       C  0.24241841  0.77821188  0.81266601     0.07500
C1278       C  0.22758929  0.74470012  0.82196594    -0.02600
Br1279     Br  0.20983269  0.70281109  0.80530024    -0.01200
Br1280     Br  0.20304916  0.69523631  0.85577235    -0.01200
Br1281     Br  0.27223120  0.85424527  0.81247297    -0.01200
Br1282     Br  0.26612711  0.84675791  0.86311565    -0.01200
C1283       C  0.28918375  0.49745725  0.84491921    -0.02300
C1284       C  0.25709981  0.47712697  0.85560884     0.07400
C1285       C  0.22186141  0.96042444  0.84429502    -0.02400
C1286       C  0.22260214  0.96316736  0.82281095    -0.02400
C1287       C  0.25736461  0.48166784  0.81242623     0.07500
C1288       C  0.28945290  0.49883685  0.82337733    -0.02600
Br1289     Br  0.33373660  0.52538972  0.80891642    -0.01200
Br1290     Br  0.33250002  0.52554313  0.85973107    -0.01200
Br1291     Br  0.17917101  0.93819902  0.80744192    -0.01200
Br1292     Br  0.17803757  0.92928977  0.85802685    -0.01200
C1293       C  0.41478901  0.60548281  0.91048049    -0.11900
C1294       C  0.41545303  0.63713273  0.91603786     0.07400
C1295       C  0.38396642  0.63510670  0.92361433    -0.02400
C1296       C  0.35199187  0.60264665  0.92415521    -0.02400
C1297       C  0.35073270  0.57132900  0.91727493     0.07500
C1298       C  0.38275711  0.57284440  0.91118069    -0.02600
Br1299     Br  0.38373654  0.53062012  0.90348802    -0.01200
Br1300     Br  0.45736042  0.60590828  0.90154603    -0.01200
Br1301     Br  0.31063452  0.60151752  0.93609566    -0.01200
Br1302     Br  0.38439022  0.67617303  0.93511825    -0.01200
C1303       C  0.12152562  0.83199127  0.93024677    -0.02300
C1304       C  0.09171049  0.82914464  0.91986152     0.07400
C1305       C  0.09354337  0.86017893  0.91199763    -0.02400
C1306       C  0.12595817  0.89237243  0.91207001    -0.02400
C1307       C  0.15684043  0.89422166  0.92047068     0.07500
C1308       C  0.15382568  0.86419153  0.93049370    -0.02600
Br1309     Br  0.19299658  0.86732762  0.94614426    -0.01200
Br1310     Br  0.11753161  0.79283654  0.94614152    -0.01200
Br1311     Br  0.12720908  0.93341031  0.90007487    -0.01200
Br1312     Br  0.05197669  0.85980461  0.90129894    -0.01200
C1313       C  0.49919081  0.70317559  0.84235936    -0.02300
C1314       C  0.01137385  0.73435228  0.85373582     0.07400
C1315       C  0.02479155  0.76671775  0.84324917    -0.02400
C1316       C  0.02425171  0.76756184  0.82176663    -0.02400
C1317       C  0.01148491  0.73612042  0.81048460     0.07500
C1318       C  0.49975063  0.70410387  0.82079700    -0.02600
Br1319     Br  0.48249911  0.66083459  0.80548318    -0.01200
Br1320     Br  0.47929192  0.65839672  0.85609074    -0.01200
Br1321     Br  0.04222203  0.81222499  0.80779062    -0.01200
Br1322     Br  0.04604821  0.81044344  0.85811048    -0.01200
C1323       C  0.35657161  0.86174730  0.90169863    -0.02300
C1324       C  0.33006550  0.85699350  0.91600122     0.07400
C1325       C  0.33615774  0.88536707  0.92897465    -0.02400
C1326       C  0.36874877  0.91739144  0.92823585    -0.02400
C1327       C  0.39540380  0.92193550  0.91411235     0.07500
C1328       C  0.38874796  0.89411899  0.90058892    -0.02600
Br1329     Br  0.42262858  0.90103266  0.87939395    -0.01200
Br1330     Br  0.34840927  0.82474591  0.88256834    -0.01200
Br1331     Br  0.37720552  0.95421662  0.94758463    -0.01200
Br1332     Br  0.30058887  0.88034131  0.94855880    -0.01200
C1333       C  0.10800042  0.61098416  0.92904607    -0.02300
C1334       C  0.08096870  0.60566318  0.91517489     0.07400
C1335       C  0.08645900  0.63313746  0.90167147    -0.02400
C1336       C  0.11812231  0.66596593  0.90250814    -0.02400
C1337       C  0.14523887  0.67128196  0.91634556     0.07500
C1338       C  0.14000394  0.64355526  0.92957359    -0.02600
Br1339     Br  0.17578004  0.65078207  0.94942573    -0.01200
Br1340     Br  0.10068004  0.57420081  0.94806197    -0.01200
Br1341     Br  0.12459878  0.70321011  0.88408736    -0.01200
Br1342     Br  0.05170244  0.62507465  0.88089796    -0.01200
C1343       C  0.46380809  0.52130942  0.81957938    -0.02300
C1344       C  0.99718767  0.53385135  0.80993998     0.07400
C1345       C  0.02999564  0.04511014  0.82253672    -0.02400
C1346       C  0.02702369  0.03995907  0.84387414    -0.02400
C1347       C  0.99076611  0.52477552  0.85292254     0.07500
C1348       C  0.46065157  0.51699063  0.84101797    -0.02600
Br1349     Br  0.41460681  0.49759104  0.85372887    -0.01200
Br1350     Br  0.42192328  0.50765844  0.80332824    -0.01200
Br1351     Br  0.06930810  0.05443066  0.85991166    -0.01200
Br1352     Br  0.07629082  0.06825968  0.80984476    -0.01200
C1353       C  0.27435565  0.76797985  0.98840942    -0.02300
C1354       C  0.24179955  0.75773417  0.97870364     0.07400
C1355       C  0.21074785  0.74431046  0.99056547    -0.02400
C1356       C  0.21218922  0.74214187  0.01208968    -0.02400
C1357       C  0.24505284  0.75243488  0.02219160     0.07500
C1358       C  0.27605104  0.76470087  0.00982401    -0.02600
Br1359     Br  0.32162375  0.77630215  0.02120466    -0.01200
Br1360     Br  0.31739924  0.78829980  0.97227509    -0.01200
Br1361     Br  0.16790708  0.72499847  0.02678859    -0.01200
Br1362     Br  0.16551699  0.72692189  0.97703135    -0.01200
C1363       C  0.27698912  0.87220529  0.09871961    -0.02300
C1364       C  0.25471319  0.84519566  0.08496757     0.07400
C1365       C  0.23528460  0.85229790  0.07030717    -0.02400
C1366       C  0.23756914  0.88559657  0.06964584    -0.02400
C1367       C  0.25846068  0.91194824  0.08399331     0.07500
C1368       C  0.27861244  0.90529540  0.09833725    -0.02600
Br1369     Br  0.30733161  0.94096727  0.11810690    -0.01200
Br1370     Br  0.30427183  0.86362139  0.11880148    -0.01200
Br1371     Br  0.21399888  0.89600955  0.04800903    -0.01200
Br1372     Br  0.20687610  0.81716470  0.05022784    -0.01200
C1373       C  0.26759266  0.65011612  0.06844313    -0.02300
C1374       C  0.24698927  0.65611901  0.08294568     0.07400
C1375       C  0.22649164  0.62925831  0.09722433    -0.02400
C1376       C  0.22707659  0.59722000  0.09718672    -0.02400
C1377       C  0.24829702  0.59162546  0.08296834     0.07500
C1378       C  0.26832100  0.61818542  0.06851355    -0.02600
Br1379     Br  0.29542691  0.61010879  0.04797106    -0.01200
Br1380     Br  0.29346634  0.68476298  0.04754601    -0.01200
Br1381     Br  0.20012364  0.56171813  0.11747972    -0.01200
Br1382     Br  0.19904330  0.63685408  0.11776572    -0.01200
C1383       C  0.22560529  0.99567224  0.01055726    -0.02300
C1384       C  0.25261244  0.49368028  0.02218150     0.07400
C1385       C  0.28244971  0.49488709  0.01241874    -0.02400
C1386       C  0.28352497  0.49217340  0.99091926    -0.02400
C1387       C  0.25416160  0.48613725  0.97891184     0.07500
C1388       C  0.22463478  0.99125426  0.98914492    -0.02600
Br1389     Br  0.18301860  0.98345174  0.97423291    -0.01200
Br1390     Br  0.18848322  0.00083025  0.02351309    -0.01200
Br1391     Br  0.32614853  0.49833521  0.97787498    -0.01200
Br1392     Br  0.32160617  0.49799671  0.02807380    -0.01200
C1393       C  0.97824468  0.75070108  0.00880580    -0.02300
C1394       C  0.49361375  0.73516859  0.02081767     0.07400
C1395       C  0.51013450  0.71827701  0.01133368    -0.02400
C1396       C  0.51215075  0.71735650  0.98981487    -0.02400
C1397       C  0.49750056  0.73364412  0.97733656     0.07500
C1398       C  0.98013456  0.75014730  0.98725796    -0.02600
Br1399     Br  0.95962136  0.77371689  0.97221082    -0.01200
Br1400     Br  0.95571150  0.77397755  0.02208845    -0.01200
Br1401     Br  0.53484631  0.69273925  0.97837631    -0.01200
Br1402     Br  0.52881781  0.69488773  0.02809120    -0.01200
C1403       C  0.46764610  0.86785876  0.09279092    -0.02300
C1404       C  0.99031763  0.89515114  0.07944852     0.07400
C1405       C  0.01350083  0.88986224  0.06667087    -0.02400
C1406       C  0.01412428  0.85789356  0.06748604    -0.02400
C1407       C  0.99109646  0.83051487  0.08081622     0.07500
C1408       C  0.46762451  0.83559780  0.09323603    -0.02600
Br1409     Br  0.43617857  0.79909004  0.11193798    -0.01200
Br1410     Br  0.43752452  0.87500897  0.11164120    -0.01200
Br1411     Br  0.04554807  0.85123448  0.04948179    -0.01200
Br1412     Br  0.04312393  0.92552832  0.04706997    -0.01200
C1413       C  0.46633052  0.58478577  0.06956566    -0.02300
C1414       C  0.98903309  0.57953713  0.08264342     0.07400
C1415       C  0.01119023  0.60664583  0.09630320    -0.02400
C1416       C  0.01155836  0.63908219  0.09637901    -0.02400
C1417       C  0.98929358  0.64464468  0.08303643     0.07500
C1418       C  0.46648919  0.61711529  0.06977636    -0.02600
Br1419     Br  0.43657014  0.62411788  0.05077747    -0.01200
Br1420     Br  0.43630444  0.54868453  0.05026674    -0.01200
Br1421     Br  0.04173351  0.67528588  0.11553672    -0.01200
Br1422     Br  0.03959889  0.59874876  0.11595602    -0.01200
C1423       C  0.47463205  0.96547932  0.00626694    -0.02300
C1424       C  0.98973523  0.49674929  0.01846420     0.07400
C1425       C  0.00472692  0.53077019  0.00975852    -0.02400
C1426       C  0.00290104  0.53483289  0.98846484    -0.02400
C1427       C  0.98749325  0.50498207  0.97561749     0.07500
C1428       C  0.47464370  0.96943648  0.98484911    -0.02600
Br1429     Br  0.45286872  0.92811831  0.96762389    -0.01200
Br1430     Br  0.45429571  0.91899497  0.01809597    -0.01200
Br1431     Br  0.02242901  0.58144603  0.97685925    -0.01200
Br1432     Br  0.02722157  0.57202087  0.02699082    -0.01200
C1433       C  0.22897494  0.74825175  0.49193360    -0.02300
C1434       C  0.26026457  0.76555467  0.48016354     0.07400
C1435       C  0.29310341  0.78617133  0.49003942    -0.02400
C1436       C  0.29466926  0.78919984  0.51153611    -0.02400
C1437       C  0.26341357  0.77177969  0.52333508     0.07500
C1438       C  0.23052172  0.75152519  0.51341478    -0.02600
Br1439     Br  0.18718084  0.72983473  0.52917481    -0.01200
Br1440     Br  0.18366731  0.72138582  0.47859593    -0.01200
Br1441     Br  0.33995612  0.81580653  0.52477753    -0.01200
Br1442     Br  0.33631742  0.80889745  0.47417913    -0.01200
C1443       C  0.21242522  0.96613517  0.51165800    -0.02300
C1444       C  0.24397063  0.49073449  0.52224364     0.07400
C1445       C  0.27597729  0.51056664  0.51132951    -0.02400
C1446       C  0.27663409  0.50787869  0.48984487    -0.02400
C1447       C  0.24528116  0.48548968  0.47897781     0.07500
C1448       C  0.21184913  0.96504939  0.49006633    -0.02600
Br1449     Br  0.16714222  0.93910423  0.47597725    -0.01200
Br1450     Br  0.16850171  0.94119307  0.52671360    -0.01200
Br1451     Br  0.32118951  0.53361029  0.47544013    -0.01200
Br1452     Br  0.31963808  0.54005443  0.52580463    -0.01200
C1453       C  0.03253646  0.80375915  0.51067150    -0.02300
C1454       C  0.00938463  0.77379256  0.52241000     0.07400
C1455       C  0.48499077  0.74210883  0.51197204    -0.02400
C1456       C  0.48767395  0.73887505  0.49072995    -0.02400
C1457       C  0.01064229  0.76944649  0.47868339     0.07500
C1458       C  0.03216984  0.80203838  0.48901430    -0.02600
Br1459     Br  0.06270138  0.84516129  0.47427413    -0.01200
Br1460     Br  0.06557577  0.84768916  0.52382621    -0.01200
Br1461     Br  0.46047659  0.69173310  0.47942885    -0.01200
Br1462     Br  0.44518630  0.70378895  0.52617464    -0.01200
C1463       C  0.40830519  0.78120217  0.40310580    -0.02300
C1464       C  0.41553157  0.76162123  0.41754876     0.07400
C1465       C  0.38971372  0.74147948  0.43246953    -0.02400
C1466       C  0.35680804  0.74031907  0.43267108    -0.02400
C1467       C  0.34940903  0.75933190  0.41799905     0.07500
C1468       C  0.37519117  0.77963788  0.40316845    -0.02600
Br1469     Br  0.36432241  0.80349072  0.38195192    -0.01200
Br1470     Br  0.44304453  0.80939179  0.38264802    -0.01200
Br1471     Br  0.32251852  0.71387510  0.45373825    -0.01200
Br1472     Br  0.39999249  0.71724274  0.45368937    -0.01200
C1473       C  0.10377669  0.73484095  0.40514109    -0.02300
C1474       C  0.09934083  0.75888683  0.41750101     0.07400
C1475       C  0.12687747  0.78153180  0.43082670    -0.02400
C1476       C  0.15884890  0.78082152  0.43138037    -0.02400
C1477       C  0.16367456  0.75761649  0.41855034     0.07500
C1478       C  0.13588827  0.73437251  0.40558075    -0.02600
Br1479     Br  0.14220717  0.70288850  0.38756530    -0.01200
Br1480     Br  0.06647836  0.70313211  0.38693663    -0.01200
Br1481     Br  0.19517245  0.81014039  0.45077372    -0.01200
Br1482     Br  0.12017028  0.81191761  0.44951056    -0.01200
C1483       C  0.99844913  0.95660296  0.51035752    -0.02300
C1484       C  0.98977247  0.48382175  0.52048513     0.07400
C1485       C  0.48002019  0.50422484  0.50843869    -0.02400
C1486       C  0.48084126  0.50281942  0.48690484    -0.02400
C1487       C  0.99178838  0.48128396  0.47699317     0.07500
C1488       C  0.99776563  0.95581805  0.48870042    -0.02600
Br1489     Br  0.01176852  0.92610557  0.47433986    -0.01200
Br1490     Br  0.01307260  0.92774063  0.52503161    -0.01200
Br1491     Br  0.46519451  0.52967758  0.47094486    -0.01200
Br1492     Br  0.46407483  0.53374986  0.52121640    -0.01200
C1493       C  0.39747707  0.50427885  0.40174614    -0.02300
C1494       C  0.40354423  0.48326014  0.41567508     0.07400
C1495       C  0.37177327  0.96055884  0.42942266    -0.02400
C1496       C  0.34058739  0.96274327  0.43020645    -0.02400
C1497       C  0.33911704  0.48428112  0.41692756     0.07500
C1498       C  0.36543590  0.50486574  0.40239335    -0.02600
Br1499     Br  0.35708423  0.53254342  0.38251720    -0.01200
Br1500     Br  0.43222372  0.53081851  0.38092373    -0.01200
Br1501     Br  0.30519414  0.93616846  0.45073356    -0.01200
Br1502     Br  0.37789247  0.93016021  0.44836672    -0.01200
C1503       C  0.12627780  0.96774357  0.40064579    -0.02300
C1504       C  0.15316238  0.48244753  0.41645511     0.07400
C1505       C  0.14764454  0.50484154  0.42961876    -0.02400
C1506       C  0.11549041  0.50516893  0.42903603    -0.02400
C1507       C  0.08816688  0.48249168  0.41559433     0.07500
C1508       C  0.09364554  0.96718375  0.40033407    -0.02600
Br1509     Br  0.06166106  0.94570650  0.37760490    -0.01200
Br1510     Br  0.13755758  0.94508136  0.37888323    -0.01200
Br1511     Br  0.10865295  0.53574498  0.44754233    -0.01200
Br1512     Br  0.18321972  0.53361568  0.44952570    -0.01200
C1513       C  0.23656052  0.76430563  0.17923572    -0.02300
C1514       C  0.25465235  0.74980957  0.18968665     0.07400
C1515       C  0.27248934  0.73587446  0.17837206    -0.02400
C1516       C  0.27181832  0.73597200  0.15678084    -0.02400
C1517       C  0.25350204  0.75024936  0.14629989     0.07500
C1518       C  0.23576356  0.76431249  0.15766518    -0.02600
Br1519     Br  0.21127339  0.78486363  0.14377499    -0.01200
Br1520     Br  0.21451085  0.78609930  0.19447928    -0.01200
Br1521     Br  0.29395251  0.71420330  0.14164192    -0.01200
Br1522     Br  0.29649179  0.71505032  0.19246822    -0.01200
C1523       C  0.24409955  0.71883295  0.32463452    -0.02300
C1524       C  0.25331651  0.74930348  0.31309415     0.07400
C1525       C  0.26237830  0.78106499  0.32317375    -0.02400
C1526       C  0.26026341  0.78201139  0.34465952    -0.02400
C1527       C  0.25342260  0.75206137  0.35659260     0.07500
C1528       C  0.24617065  0.72056209  0.34619641    -0.02600
Br1529     Br  0.24149778  0.67995173  0.36067592    -0.01200
Br1530     Br  0.22904503  0.67467591  0.31072452    -0.01200
Br1531     Br  0.26431278  0.82417897  0.35686920    -0.01200
Br1532     Br  0.27768796  0.82355863  0.30740649    -0.01200
C1533       C  0.27749750  0.90080421  0.23791088    -0.02300
C1534       C  0.25342101  0.90556782  0.25015659     0.07400
C1535       C  0.22925010  0.87754325  0.26273778    -0.02400
C1536       C  0.22927053  0.84528014  0.26313044    -0.02400
C1537       C  0.25381093  0.84070445  0.25114149     0.07500
C1538       C  0.27806229  0.86885001  0.23861047    -0.02600
Br1539     Br  0.31142163  0.86363575  0.22148661    -0.01200
Br1540     Br  0.30836837  0.93718332  0.21895294    -0.01200
Br1541     Br  0.19665323  0.80822892  0.28118273    -0.01200
Br1542     Br  0.19705198  0.88361729  0.28043302    -0.01200
C1543       C  0.27564477  0.61731039  0.26448161    -0.02300
C1544       C  0.25283554  0.58981143  0.25118183     0.07400
C1545       C  0.23119526  0.59571288  0.23750806    -0.02400
C1546       C  0.23135685  0.62808416  0.23766789    -0.02400
C1547       C  0.25403089  0.65553222  0.25104890     0.07500
C1548       C  0.27662407  0.65007921  0.26420793    -0.02600
Br1549     Br  0.30824313  0.68691267  0.28263351    -0.01200
Br1550     Br  0.30449591  0.60980269  0.28400362    -0.01200
Br1551     Br  0.20172057  0.63522620  0.21853676    -0.01200
Br1552     Br  0.20310659  0.56049226  0.21732497    -0.01200
C1553       C  0.27273460  0.53139442  0.17855158    -0.02300
C1554       C  0.25347531  0.49908432  0.18906428     0.07400
C1555       C  0.24000873  0.97043024  0.17783068    -0.02400
C1556       C  0.23873965  0.97109075  0.15631712    -0.02400
C1557       C  0.25168625  0.50088454  0.14578830     0.07500
C1558       C  0.27177800  0.53229601  0.15700134    -0.02600
Br1559     Br  0.29654410  0.57696298  0.14292706    -0.01200
Br1560     Br  0.29942077  0.57474969  0.19365619    -0.01200
Br1561     Br  0.21284331  0.92733484  0.14144180    -0.01200
Br1562     Br  0.21679899  0.92578099  0.19203416    -0.01200
C1563       C  0.26368432  0.97486304  0.34439491    -0.02300
C1564       C  0.24509463  0.48404622  0.35549413     0.07400
C1565       C  0.22826514  0.50036391  0.34555946    -0.02400
C1566       C  0.22873090  0.50270678  0.32404878    -0.02400
C1567       C  0.24681837  0.48954913  0.31231230     0.07500
C1568       C  0.26608575  0.97737714  0.32288788    -0.02600
Br1569     Br  0.28868965  0.95572592  0.30807552    -0.01200
Br1570     Br  0.28469736  0.95139072  0.35884673    -0.01200
Br1571     Br  0.20552749  0.52508822  0.31074479    -0.01200
Br1572     Br  0.20382052  0.51895979  0.36142416    -0.01200
C1573       C  0.46647398  0.70684871  0.15509642    -0.02300
C1574       C  0.98777985  0.73809161  0.14420945     0.07400
C1575       C  0.01014930  0.76925846  0.15513078    -0.02400
C1576       C  0.01079073  0.76906292  0.17670335    -0.02400
C1577       C  0.98923449  0.73759323  0.18766257     0.07500
C1578       C  0.46718349  0.70662345  0.17668489    -0.02600
Br1579     Br  0.43850298  0.66284043  0.19112009    -0.01200
Br1580     Br  0.43675134  0.66345140  0.14059077    -0.01200
Br1581     Br  0.03991455  0.81276373  0.19111739    -0.01200
Br1582     Br  0.03871848  0.81300426  0.14061000    -0.01200
C1583       C  0.03178751  0.75611800  0.32222389    -0.02300
C1584       C  0.99888052  0.74312041  0.31172827     0.07400
C1585       C  0.46799258  0.73443393  0.32351385    -0.02400
C1586       C  0.46993838  0.73721702  0.34505705    -0.02400
C1587       C  0.00293311  0.75158153  0.35511963     0.07500
C1588       C  0.03377570  0.76154437  0.34359689    -0.02600
Br1589     Br  0.07898774  0.78203103  0.35740098    -0.01200
Br1590     Br  0.07475988  0.76500323  0.30832503    -0.01200
Br1591     Br  0.42755777  0.72323324  0.36104924    -0.01200
Br1592     Br  0.42249364  0.72016372  0.31107272    -0.01200
C1593       C  0.00582131  0.85316863  0.26537311    -0.02300
C1594       C  0.48894490  0.82795034  0.24953597     0.07400
C1595       C  0.47166951  0.83496029  0.23349292    -0.02400
C1596       C  0.47089579  0.86684195  0.23314432    -0.02400
C1597       C  0.48732074  0.89192122  0.24886383     0.07500
C1598       C  0.00489606  0.88495650  0.26513755    -0.02600
Br1599     Br  0.02524820  0.91780753  0.28753967    -0.01200
Br1600     Br  0.02845502  0.84330982  0.28774004    -0.01200
Br1601     Br  0.44847142  0.87672846  0.21069838    -0.01200
Br1602     Br  0.45033624  0.80151472  0.21148007    -0.01200
C1603       C  0.01452302  0.63984553  0.23255720    -0.02300
C1604       C  0.49849277  0.64784526  0.24885139     0.07400
C1605       C  0.48256987  0.62303679  0.26479022    -0.02400
C1606       C  0.48186662  0.59041003  0.26407173    -0.02400
C1607       C  0.49775812  0.58244114  0.24761100     0.07500
C1608       C  0.01481743  0.60765189  0.23211347    -0.02600
Br1609     Br  0.03742627  0.59780646  0.20967656    -0.01200
Br1610     Br  0.03503926  0.67272146  0.21018523    -0.01200
Br1611     Br  0.46023063  0.55710600  0.28615759    -0.01200
Br1612     Br  0.46331953  0.63459392  0.28824723    -0.01200
C1613       C  0.00839746  0.97096350  0.15316438    -0.02300
C1614       C  0.99208601  0.48529585  0.14163325     0.07400
C1615       C  0.47303944  0.49808537  0.15270738    -0.02400
C1616       C  0.47369867  0.49860087  0.17428803    -0.02400
C1617       C  0.99410392  0.48692814  0.18506601     0.07500
C1618       C  0.00943255  0.97182468  0.17475615    -0.02600
Br1619     Br  0.03492238  0.95282753  0.18909298    -0.01200
Br1620     Br  0.03162478  0.95000289  0.13829468    -0.01200
Br1621     Br  0.44768768  0.51680731  0.18894254    -0.01200
Br1622     Br  0.44729086  0.51679372  0.13831635    -0.01200
C1623       C  0.02798737  0.50703847  0.34229017    -0.02300
C1624       C  0.99652963  0.48522413  0.35316221     0.07400
C1625       C  0.46103702  0.96312385  0.34291506    -0.02400
C1626       C  0.46099309  0.96243945  0.32131632    -0.02400
C1627       C  0.99624864  0.48760961  0.30940625     0.07500
C1628       C  0.02774991  0.50929166  0.32071585    -0.02600
Br1629     Br  0.07116142  0.54374926  0.30750450    -0.01200
Br1630     Br  0.07220194  0.53274988  0.35700005    -0.01200
Br1631     Br  0.41836152  0.92714657  0.30787895    -0.01200
Br1632     Br  0.41714692  0.93483768  0.35763819    -0.01200
O1633       O  0.96749247  0.47577090  0.27629521    -0.72200
O1634       O  0.96626923  0.47387344  0.21804490    -0.72500
O1635       O  0.96582197  0.43058680  0.24756300    -0.72300
O1636       O  0.96586215  0.01826431  0.24735222    -0.72300
O1637       O  0.52211285  0.04391819  0.24829595    -0.72300
O1638       O  0.52379001  0.45868179  0.24678092    -0.72300
O1639       O  0.51993461  0.00001693  0.21851562    -0.72300
O1640       O  0.52000883  0.99824378  0.27677415    -0.72400
V1641       V  0.96798574  0.47531491  0.24716751     1.35200
V1642       V  0.51888458  0.99879659  0.24767916     1.35200
C1643       C  0.49162953  0.98613600  0.28700060     0.77000
C1644       C  0.49113484  0.98605681  0.20863284     0.77000
C1645       C  0.99428391  0.42937349  0.24746043     0.76900
C1646       C  0.99534509  0.04664657  0.24774979     0.76900
O1647       O  0.97120048  0.22849633  0.27922318    -0.72200
O1648       O  0.96856322  0.22252459  0.22110166    -0.72500
O1649       O  0.97041071  0.18221042  0.25152017    -0.72300
O1650       O  0.96861347  0.26828452  0.24868558    -0.72300
O1651       O  0.52599273  0.29756646  0.25037344    -0.72300
O1652       O  0.52684066  0.21067114  0.24783227    -0.72300
O1653       O  0.52478202  0.25554237  0.22008842    -0.72300
O1654       O  0.52783618  0.25279254  0.27809861    -0.72400
V1655       V  0.97073275  0.22587688  0.25013693     1.35200
V1656       V  0.52537414  0.25360894  0.24911206     1.35200
C1657       C  0.50005737  0.24197505  0.28874484     0.77000
C1658       C  0.49593007  0.23802208  0.21047180     0.77000
C1659       C  0.49848587  0.18144891  0.25008673     0.76900
C1660       C  0.49712422  0.29785362  0.24893519     0.76900
O1661       O  0.78640314  0.05718117  0.25157161    -0.72200
O1662       O  0.77833952  0.46585008  0.25080491    -0.72500
O1663       O  0.78697723  0.01445613  0.22211439    -0.72300
O1664       O  0.78282385  0.01132564  0.28036821    -0.72300
O1665       O  0.72005462  0.47999796  0.27921354    -0.72300
O1666       O  0.72353634  0.48413384  0.22111163    -0.72300
O1667       O  0.72094571  0.43824064  0.24932564    -0.72300
O1668       O  0.72896521  0.03003321  0.25047228    -0.72400
V1669       V  0.78383852  0.01243740  0.25123520     1.35200
V1670       V  0.72298105  0.48277099  0.25017126     1.35200
C1671       C  0.75816562  0.05872015  0.25106988     0.77000
C1672       C  0.74936532  0.43701502  0.24992950     0.77000
C1673       C  0.75883435  0.00141595  0.21163825     0.76900
C1674       C  0.75331017  0.99690286  0.28957818     0.76900
O1675       O  0.72442000  0.27576732  0.25173614    -0.72200
O1676       O  0.72841027  0.19081876  0.25250657    -0.72500
O1677       O  0.72755011  0.23443410  0.28127873    -0.72300
O1678       O  0.72516978  0.23211248  0.22307950    -0.72300
O1679       O  0.78259740  0.26281870  0.22215437    -0.72300
O1680       O  0.78506394  0.26470397  0.28042385    -0.72300
O1681       O  0.78584266  0.22113736  0.25140987    -0.72300
O1682       O  0.78182247  0.30614344  0.25119155    -0.72400
V1683       V  0.72752224  0.23386389  0.25215583     1.35200
V1684       V  0.78272131  0.26308555  0.25132282     1.35200
C1685       C  0.75244915  0.30551666  0.25126700     0.77000
C1686       C  0.75775905  0.19142652  0.25189246     0.77000
C1687       C  0.75670026  0.25004251  0.29074929     0.76900
C1688       C  0.75341780  0.24730666  0.21267031     0.76900
O1689       O  0.54944263  0.01088008  0.41620654    -0.72200
O1690       O  0.96191669  0.00994142  0.41637649    -0.72500
O1691       O  0.50455897  0.00797257  0.44543379    -0.72300
O1692       O  0.50617186  0.01210090  0.38715901    -0.72300
O1693       O  0.98274773  0.45526779  0.38558672    -0.72300
O1694       O  0.97970052  0.45315875  0.44397989    -0.72300
O1695       O  0.93778537  0.45435881  0.41424975    -0.72300
O1696       O  0.52477093  0.45390311  0.41539986    -0.72400
V1697       V  0.50494817  0.00901648  0.41628092     1.35200
V1698       V  0.98186236  0.45528053  0.41479124     1.35200
C1699       C  0.55048147  0.98255685  0.41581511     0.77000
C1700       C  0.93286471  0.98128886  0.41537970     0.77000
C1701       C  0.48965277  0.97871463  0.45477049     0.76900
C1702       C  0.49260092  0.98416263  0.37657426     0.76900
O1703       O  0.53673477  0.22610144  0.41785680    -0.72200
O1704       O  0.94944137  0.22602949  0.41853099    -0.72500
O1705       O  0.99074088  0.22213503  0.38916442    -0.72300
O1706       O  0.99557112  0.22988255  0.44713953    -0.72300
O1707       O  0.52189723  0.28687917  0.44460214    -0.72300
O1708       O  0.52148877  0.27987424  0.38675458    -0.72300
O1709       O  0.97807765  0.28289254  0.41503005    -0.72300
O1710       O  0.56560338  0.28327817  0.41666443    -0.72400
V1711       V  0.99356906  0.22695734  0.41812316     1.35200
V1712       V  0.52134521  0.28226007  0.41574976     1.35200
C1713       C  0.56601687  0.25458774  0.41745003     0.77000
C1714       C  0.94887160  0.25452757  0.41691286     0.77000
C1715       C  0.50577549  0.25018568  0.37800857     0.76900
C1716       C  0.50900056  0.25992656  0.45590679     0.76900
O1717       O  0.73215653  0.45534547  0.44646709    -0.72200
O1718       O  0.73193440  0.45453247  0.38800957    -0.72500
O1719       O  0.77586982  0.45524559  0.41717205    -0.72300
O1720       O  0.68816866  0.45417999  0.41726059    -0.72300
O1721       O  0.71425052  0.01473495  0.41768072    -0.72300
O1722       O  0.80198131  0.01501636  0.41738545    -0.72300
O1723       O  0.75892927  0.01674656  0.38852150    -0.72300
O1724       O  0.75770513  0.01361198  0.44658771    -0.72400
V1725       V  0.73260572  0.45590775  0.41723190     1.35200
V1726       V  0.75763418  0.01391912  0.41753342     1.35200
C1727       C  0.74312368  0.98461189  0.45609998     0.77000
C1728       C  0.74554882  0.98878311  0.37803997     0.77000
C1729       C  0.80239741  0.98629945  0.41699738     0.76900
C1730       C  0.68513279  0.98597869  0.41682468     0.76900
O1731       O  0.77107836  0.28481377  0.44787430    -0.72200
O1732       O  0.77326250  0.28245709  0.38987031    -0.72500
O1733       O  0.72803727  0.28314160  0.41790565    -0.72300
O1734       O  0.81575470  0.28405852  0.41975442    -0.72300
O1735       O  0.78734695  0.22683158  0.41892401    -0.72300
O1736       O  0.69981495  0.22605793  0.42023747    -0.72300
O1737       O  0.74227962  0.22576424  0.39047025    -0.72300
O1738       O  0.74512207  0.22768024  0.44874798    -0.72400
V1739       V  0.77140688  0.28252254  0.41888315     1.35200
V1740       V  0.74416748  0.22764583  0.41959314     1.35200
C1741       C  0.75852191  0.25673753  0.45823156     0.77000
C1742       C  0.75813350  0.25380566  0.38004930     0.77000
C1743       C  0.69896088  0.25441668  0.41897313     0.76900
C1744       C  0.81643945  0.25554221  0.41922575     0.76900
O1745       O  0.96177435  0.47606467  0.05098648    -0.72200
O1746       O  0.96282445  0.47135133  0.10913085    -0.72500
O1747       O  0.95982306  0.01560981  0.08251612    -0.72300
O1748       O  0.96321281  0.43053851  0.07834171    -0.72300
O1749       O  0.52093809  0.45995711  0.07799878    -0.72300
O1750       O  0.51783510  0.04502963  0.08166455    -0.72300
O1751       O  0.51831280  0.00017737  0.10973337    -0.72300
O1752       O  0.51871985  0.00406613  0.05150789    -0.72400
V1753       V  0.96343755  0.47409719  0.08003384     1.35200
V1754       V  0.51736052  0.00132895  0.08061171     1.35200
C1755       C  0.49002235  0.99131605  0.04159508     0.77000
C1756       C  0.48950829  0.98484872  0.11963893     0.77000
C1757       C  0.48892297  0.04530014  0.08232475     0.76900
C1758       C  0.49246992  0.43052264  0.07789037     0.76900
O1759       O  0.96203888  0.18046677  0.08250861    -0.72200
O1760       O  0.96349124  0.26808261  0.08022761    -0.72500
O1761       O  0.96165982  0.22190111  0.05230845    -0.72300
O1762       O  0.96417785  0.22625720  0.11043783    -0.72300
O1763       O  0.52115090  0.25470282  0.10992317    -0.72300
O1764       O  0.51948034  0.24993961  0.05192781    -0.72300
O1765       O  0.52080740  0.29611297  0.07970083    -0.72300
O1766       O  0.51995401  0.20858496  0.08199457    -0.72400
V1767       V  0.96393145  0.22478647  0.08135321     1.35200
V1768       V  0.51925459  0.25181722  0.08091373     1.35200
C1769       C  0.49105707  0.17956083  0.08237331     0.77000
C1770       C  0.49222589  0.29705206  0.07981750     0.77000
C1771       C  0.99010825  0.23468083  0.04211158     0.76900
C1772       C  0.99287671  0.24053789  0.12020065     0.76900
O1773       O  0.72311540  0.48280322  0.05495549    -0.72200
O1774       O  0.72274573  0.48779603  0.11317167    -0.72500
O1775       O  0.72457285  0.02989242  0.08344202    -0.72300
O1776       O  0.72383651  0.44291843  0.08557155    -0.72300
O1777       O  0.78124911  0.47221700  0.08393534    -0.72300
O1778       O  0.78199208  0.06055148  0.08397552    -0.72300
O1779       O  0.78520542  0.01823798  0.11278448    -0.72300
O1780       O  0.78326561  0.01784992  0.05465121    -0.72400
V1781       V  0.72386679  0.48620949  0.08405425     1.35200
V1782       V  0.78307790  0.01746255  0.08373592     1.35200
C1783       C  0.75450773  0.00059213  0.04496176     0.77000
C1784       C  0.75678520  0.00387191  0.12303867     0.77000
C1785       C  0.75250059  0.05973260  0.08366672     0.76900
C1786       C  0.75276625  0.44280248  0.08478747     0.76900
O1787       O  0.77340226  0.26374629  0.05496621    -0.72200
O1788       O  0.77692111  0.26195498  0.11323921    -0.72500
O1789       O  0.77539623  0.21934079  0.08310602    -0.72300
O1790       O  0.77566213  0.30623441  0.08511828    -0.72300
O1791       O  0.71823006  0.27809811  0.08593002    -0.72300
O1792       O  0.71800185  0.19061052  0.08454489    -0.72300
O1793       O  0.71946503  0.23395832  0.11431167    -0.72300
O1794       O  0.71644418  0.23460835  0.05608949    -0.72400
V1795       V  0.77420908  0.26218475  0.08412372     1.35200
V1796       V  0.71910835  0.23484122  0.08519478     1.35200
C1797       C  0.74432719  0.24989255  0.04536535     0.77000
C1798       C  0.74869443  0.24779608  0.12373682     0.77000
C1799       C  0.74682537  0.19011021  0.08366576     0.76900
C1800       C  0.74715063  0.30716989  0.08571919     0.76900
O1801       O  0.51976222  0.07046805  0.91719313    -0.72200
O1802       O  0.92942711  0.48620783  0.91463802    -0.72500
O1803       O  0.97579125  0.02333231  0.94517435    -0.72300
O1804       O  0.97609072  0.03193273  0.88710689    -0.72300
O1805       O  0.50057723  0.50277084  0.88411803    -0.72300
O1806       O  0.50167437  0.49613317  0.94190886    -0.72300
O1807       O  0.95708080  0.45660040  0.91239094    -0.72300
O1808       O  0.54778075  0.04133850  0.91392042    -0.72400
V1809       V  0.97632224  0.02699983  0.91607169     1.35200
V1810       V  0.50053411  0.50010295  0.91306942     1.35200
C1811       C  0.54878462  0.07066741  0.91555235     0.77000
C1812       C  0.92812824  0.45674495  0.91356133     0.77000
C1813       C  0.49005510  0.00742799  0.95349093     0.76900
C1814       C  0.49032023  0.01903933  0.87581638     0.76900
O1815       O  0.98063951  0.24120272  0.94173338    -0.72200
O1816       O  0.99680900  0.24997188  0.88437096    -0.72500
O1817       O  0.94725883  0.20143418  0.90914365    -0.72300
O1818       O  0.53063352  0.28991982  0.91728961    -0.72300
O1819       O  0.56167450  0.26397647  0.91479255    -0.72300
O1820       O  0.97671056  0.17541590  0.91705125    -0.72300
O1821       O  0.52011912  0.21625836  0.88677388    -0.72300
O1822       O  0.51835912  0.22308497  0.94474657    -0.72400
V1823       V  0.98937158  0.24531754  0.91310446     1.35200
V1824       V  0.51873916  0.22003681  0.91576255     1.35200
C1825       C  0.99766007  0.23175789  0.95325585     0.77000
C1826       C  0.00993192  0.23331247  0.87560438     0.77000
C1827       C  0.94716079  0.17315623  0.91328943     0.76900
C1828       C  0.56078432  0.29226881  0.91689202     0.76900
O1829       O  0.72416379  0.42333757  0.91661812    -0.72200
O1830       O  0.80992283  0.01069576  0.91943751    -0.72500
O1831       O  0.76532509  0.46494205  0.94724666    -0.72300
O1832       O  0.77257925  0.46622313  0.88895989    -0.72300
O1833       O  0.73525407  0.99252026  0.88737300    -0.72300
O1834       O  0.74319223  0.00576885  0.94502658    -0.72300
O1835       O  0.78381628  0.04041617  0.91261532    -0.72300
O1836       O  0.69820213  0.45429919  0.91944204    -0.72400
V1837       V  0.76848804  0.46604260  0.91808497     1.35200
V1838       V  0.73962176  0.99851516  0.91624206     1.35200
C1839       C  0.69569846  0.42430778  0.91844839     0.77000
C1840       C  0.81233304  0.04023140  0.91589867     0.77000
C1841       C  0.75279117  0.98833328  0.95608793     0.76900
C1842       C  0.75208971  0.97986202  0.87830101     0.76900
O1843       O  0.76553476  0.32253081  0.91859978    -0.72200
O1844       O  0.67927095  0.23432239  0.91854208    -0.72500
O1845       O  0.72460504  0.27596269  0.94768590    -0.72300
O1846       O  0.72024512  0.28122851  0.88967372    -0.72300
O1847       O  0.75088382  0.25468616  0.88655664    -0.72300
O1848       O  0.75351828  0.24769884  0.94449212    -0.72300
O1849       O  0.70924930  0.20725625  0.91474639    -0.72300
O1850       O  0.79524152  0.29499193  0.91612051    -0.72400
V1851       V  0.72295519  0.27795866  0.91860111     1.35200
V1852       V  0.75161672  0.25168827  0.91556163     1.35200
C1853       C  0.79513957  0.32378848  0.91709103     0.77000
C1854       C  0.67958987  0.20570109  0.91650797     0.77000
C1855       C  0.73957433  0.26071385  0.95600390     0.76900
C1856       C  0.73534844  0.26935909  0.87824247     0.76900
O1857       O  0.97889663  0.46135081  0.55513735    -0.72200
O1858       O  0.98165700  0.47437742  0.61309867    -0.72500
O1859       O  0.93644373  0.46702335  0.58316360    -0.72300
O1860       O  0.52406604  0.46780327  0.58539274    -0.72300
O1861       O  0.55551808  0.02119730  0.58066186    -0.72300
O1862       O  0.96697082  0.01875009  0.58060035    -0.72300
O1863       O  0.51431465  0.02656765  0.60926502    -0.72300
O1864       O  0.50837720  0.01366543  0.55174862    -0.72400
V1865       V  0.98086846  0.46872287  0.58409000     1.35200
V1866       V  0.51077943  0.01892896  0.58060673     1.35200
C1867       C  0.49361209  0.98328089  0.54382973     0.77000
C1868       C  0.50072480  0.00099688  0.62159480     0.77000
C1869       C  0.93818287  0.98991880  0.58246201     0.76900
C1870       C  0.55701150  0.99337514  0.58337656     0.76900
O1871       O  0.95273584  0.24186747  0.58328767    -0.72200
O1872       O  0.53858461  0.23930158  0.58382132    -0.72500
O1873       O  0.99445822  0.23949593  0.61276848    -0.72300
O1874       O  0.99699735  0.24130794  0.55502237    -0.72300
O1875       O  0.52178828  0.29807737  0.55546165    -0.72300
O1876       O  0.52842614  0.29625120  0.61356168    -0.72300
O1877       O  0.56817000  0.29622518  0.58220267    -0.72300
O1878       O  0.98267053  0.29849150  0.58707615    -0.72400
V1879       V  0.99621624  0.24155799  0.58381971     1.35200
V1880       V  0.52478483  0.29625338  0.58454162     1.35200
C1881       C  0.95299338  0.27070301  0.58544058     0.77000
C1882       C  0.56815065  0.26735313  0.58244471     0.77000
C1883       C  0.51157083  0.26729590  0.62300684     0.76900
C1884       C  0.50866764  0.26978740  0.54519714     0.76900
O1885       O  0.76077421  0.01788205  0.55396428    -0.72200
O1886       O  0.76559827  0.02279132  0.61223660    -0.72500
O1887       O  0.80548212  0.01826474  0.58239150    -0.72300
O1888       O  0.72064998  0.02287610  0.58379074    -0.72300
O1889       O  0.68602234  0.46747208  0.58383978    -0.72300
O1890       O  0.77253797  0.46587609  0.58511812    -0.72300
O1891       O  0.72885513  0.46827096  0.61342767    -0.72300
O1892       O  0.72952819  0.46478997  0.55548109    -0.72400
V1893       V  0.76247898  0.01937313  0.58311404     1.35200
V1894       V  0.72979892  0.46775009  0.58445368     1.35200
C1895       C  0.74552348  0.98838639  0.54489431     0.77000
C1896       C  0.75031808  0.99499454  0.62292705     0.77000
C1897       C  0.80473527  0.98909626  0.58366683     0.76900
C1898       C  0.69076445  0.99504429  0.58436779     0.76900
O1899       O  0.77671549  0.29718047  0.55484024    -0.72200
O1900       O  0.77542060  0.30737430  0.61254321    -0.72500
O1901       O  0.82079081  0.30451556  0.58589200    -0.72300
O1902       O  0.73113136  0.29925998  0.58194734    -0.72300
O1903       O  0.70537207  0.24247573  0.58384702    -0.72300
O1904       O  0.79417660  0.24805042  0.58983495    -0.72300
O1905       O  0.74729826  0.25039510  0.61588947    -0.72300
O1906       O  0.75189771  0.24042109  0.55826054    -0.72400
V1907       V  0.77556269  0.30103298  0.58381430     1.35200
V1908       V  0.75027410  0.24646545  0.58696755     1.35200
C1909       C  0.76425061  0.26708907  0.54668877     0.77000
C1910       C  0.76071440  0.28063541  0.62399568     0.77000
C1911       C  0.82284037  0.27700665  0.58874228     0.76900
C1912       C  0.70277749  0.26974316  0.58204131     0.76900
O1913       O  0.97269913  0.47416436  0.75003520    -0.72200
O1914       O  0.56256816  0.06072272  0.74998219    -0.72500
O1915       O  0.51468184  0.51922853  0.77873440    -0.72300
O1916       O  0.51857334  0.51486257  0.72095704    -0.72300
O1917       O  0.99034041  0.04043483  0.71845787    -0.72300
O1918       O  0.98868192  0.04829691  0.77659745    -0.72300
O1919       O  0.53320655  0.08842627  0.74649657    -0.72300
O1920       O  0.94485567  0.50364718  0.74783906    -0.72400
V1921       V  0.51623331  0.51787751  0.74981539     1.35200
V1922       V  0.99030653  0.04421831  0.74756632     1.35200
C1923       C  0.94371216  0.47430340  0.74918898     0.77000
C1924       C  0.56271351  0.08964250  0.74826945     0.77000
C1925       C  0.50204875  0.03440331  0.78779389     0.76900
C1926       C  0.50508725  0.02481479  0.71011688     0.76900
O1927       O  0.51751471  0.22895969  0.71827499    -0.72200
O1928       O  0.52285836  0.22288982  0.77593120    -0.72500
O1929       O  0.97603397  0.18284808  0.74701973    -0.72300
O1930       O  0.56410460  0.26899486  0.74700079    -0.72300
O1931       O  0.53627966  0.29803103  0.75163857    -0.72300
O1932       O  0.94824622  0.21227534  0.75002559    -0.72300
O1933       O  0.99403594  0.25116195  0.77949939    -0.72300
O1934       O  0.99149816  0.25987947  0.72194827    -0.72400
V1935       V  0.51949269  0.22638807  0.74715606     1.35200
V1936       V  0.99298134  0.25467678  0.75066012     1.35200
C1937       C  0.50482409  0.24657899  0.71033947     0.77000
C1938       C  0.50936374  0.23609885  0.78757759     0.77000
C1939       C  0.94706636  0.18286346  0.74865025     0.76900
C1940       C  0.56522827  0.29827033  0.74928157     0.76900
O1941       O  0.77143531  0.47250194  0.77842718    -0.72200
O1942       O  0.77054650  0.48171887  0.72064881    -0.72500
O1943       O  0.81407407  0.02156720  0.75141356    -0.72300
O1944       O  0.72795974  0.43304947  0.74809399    -0.72300
O1945       O  0.69792731  0.45992525  0.75244927    -0.72300
O1946       O  0.78389193  0.04880671  0.75228266    -0.72300
O1947       O  0.73965443  0.00600052  0.72297442    -0.72300
O1948       O  0.74168676  0.00237727  0.78113869    -0.72400
V1949       V  0.77037020  0.47757463  0.74956782     1.35200
V1950       V  0.74144951  0.00392958  0.75204117     1.35200
C1951       C  0.75592114  0.98688236  0.78999024     0.77000
C1952       C  0.75561245  0.99429655  0.71211574     0.77000
C1953       C  0.81367043  0.05026243  0.75174140     0.76900
C1954       C  0.69824994  0.43140530  0.74996228     0.76900
O1955       O  0.73241471  0.29749476  0.77964634    -0.72200
O1956       O  0.73860542  0.30056510  0.72159053    -0.72500
O1957       O  0.69278810  0.25452734  0.74919687    -0.72300
O1958       O  0.77852939  0.34335960  0.75179436    -0.72300
O1959       O  0.80864862  0.31603247  0.75260853    -0.72300
O1960       O  0.72325558  0.22771297  0.75066440    -0.72300
O1961       O  0.76831453  0.27289503  0.72256034    -0.72300
O1962       O  0.76319927  0.27088243  0.78067069    -0.72400
V1963       V  0.73617571  0.29848984  0.75060881     1.35200
V1964       V  0.76530126  0.27247714  0.75160746     1.35200
C1965       C  0.74627351  0.28316760  0.79003987     0.77000
C1966       C  0.75443097  0.28720788  0.71215209     0.77000
C1967       C  0.69339120  0.22586901  0.74963492     0.76900
C1968       C  0.80826099  0.34470983  0.75227828     0.76900
C1969       C  0.88874255  0.14213243  0.76563257    -0.02300
C1970       C  0.91261531  0.14923762  0.74925532     0.07400
C1971       C  0.90350682  0.12398290  0.73357909    -0.02400
C1972       C  0.87126880  0.09168453  0.73449266    -0.02400
C1973       C  0.84736766  0.08459253  0.75084981     0.07500
C1974       C  0.85600300  0.11026794  0.76622450    -0.02600
Br1975     Br  0.82355922  0.10146365  0.78853772    -0.01200
Br1976     Br  0.90178814  0.17506039  0.78803784    -0.01200
Br1977     Br  0.85904140  0.05785328  0.71263284    -0.01200
Br1978     Br  0.93427079  0.13439389  0.71017579    -0.01200
C1979       C  0.62816064  0.33608518  0.76121068    -0.02300
C1980       C  0.59953251  0.33207198  0.74912505     0.07400
C1981       C  0.60382308  0.36056192  0.73688616    -0.02400
C1982       C  0.63622603  0.39274167  0.73691148    -0.02400
C1983       C  0.66462677  0.39696963  0.74932041     0.07500
C1984       C  0.66055552  0.36825214  0.76125252    -0.02600
Br1985     Br  0.69873181  0.37306809  0.77848460    -0.01200
Br1986     Br  0.62249816  0.29827791  0.77884116    -0.01200
Br1987     Br  0.64235643  0.43020689  0.71874645    -0.01200
Br1988     Br  0.56594691  0.35520632  0.71918241    -0.01200
C1989       C  0.88399252  0.43305503  0.73425002    -0.02300
C1990       C  0.90911141  0.44109239  0.74994761     0.07400
C1991       C  0.90049487  0.41796064  0.76673274    -0.02400
C1992       C  0.86707512  0.38703796  0.76778697    -0.02400
C1993       C  0.84206954  0.37881105  0.75201666     0.07500
C1994       C  0.85055980  0.40211521  0.73531364    -0.02600
Br1995     Br  0.81708773  0.39094934  0.71332651    -0.01200
Br1996     Br  0.89621045  0.46333711  0.71057743    -0.01200
Br1997     Br  0.85485344  0.35671157  0.79140037    -0.01200
Br1998     Br  0.93396124  0.42917238  0.78873377    -0.01200
C1999       C  0.63092096  0.18480027  0.76168996    -0.02300
C2000       C  0.66002209  0.19092476  0.74923368     0.07400
C2001       C  0.65732165  0.16314495  0.73683014    -0.02400
C2002       C  0.62572625  0.13009939  0.73655218    -0.02400
C2003       C  0.59640752  0.12426589  0.74870380     0.07500
C2004       C  0.59933653  0.15183568  0.76135718    -0.02600
Br2005     Br  0.56081937  0.14408473  0.77935658    -0.01200
Br2006     Br  0.63497361  0.22054751  0.78059666    -0.01200
Br2007     Br  0.62220068  0.09344913  0.71857483    -0.01200
Br2008     Br  0.69635482  0.17038127  0.71945082    -0.01200
C2009       C  0.79053248  0.29628589  0.65807977    -0.02300
C2010       C  0.75958633  0.28469895  0.64637588     0.07400
C2011       C  0.72769835  0.27724386  0.65608293    -0.02400
C2012       C  0.72599593  0.27864833  0.67756051    -0.02400
C2013       C  0.75652624  0.28806419  0.68947528     0.07500
C2014       C  0.78907475  0.29798407  0.67955839    -0.02600
Br2015     Br  0.83224587  0.31574653  0.69517033    -0.01200
Br2016     Br  0.83498409  0.30987188  0.64456995    -0.01200
Br2017     Br  0.68122002  0.26617457  0.69040532    -0.01200
Br2018     Br  0.68675084  0.26682089  0.63984405    -0.01200
C2019       C  0.74985601  0.52374583  0.67931864    -0.02300
C2020       C  0.75489645  0.99518860  0.68926727     0.07400
C2021       C  0.75538657  0.96803702  0.67769665    -0.02400
C2022       C  0.75562452  0.96911802  0.65616401    -0.02400
C2023       C  0.75273733  0.99587017  0.64571209     0.07500
C2024       C  0.74658223  0.52360788  0.65778809    -0.02600
Br2025     Br  0.73863121  0.55884345  0.64497569    -0.01200
Br2026     Br  0.75386470  0.56342583  0.69459221    -0.01200
Br2027     Br  0.76206542  0.93449099  0.64121359    -0.01200
Br2028     Br  0.75367446  0.92758762  0.69088451    -0.01200
C2029       C  0.88909894  0.24525223  0.59600771    -0.02300
C2030       C  0.91968466  0.27228847  0.58634025     0.07400
C2031       C  0.91901565  0.30214309  0.57857842    -0.02400
C2032       C  0.88856609  0.30535995  0.58083829    -0.02400
C2033       C  0.85748666  0.27773909  0.58992109     0.07500
C2034       C  0.85888134  0.24871655  0.59856750    -0.02600
Br2035     Br  0.82106099  0.21486806  0.61594889    -0.01200
Br2036     Br  0.88737723  0.20262805  0.60579574    -0.01200
Br2037     Br  0.89123388  0.34874202  0.57178392    -0.01200
Br2038     Br  0.95846556  0.33751957  0.56276541    -0.01200
C2039       C  0.60499625  0.23916707  0.59077722    -0.02300
C2040       C  0.60186367  0.26648289  0.58116696     0.07400
C2041       C  0.63116611  0.29282630  0.57012526    -0.02400
C2042       C  0.66369771  0.29323115  0.56987678    -0.02400
C2043       C  0.66743556  0.26715028  0.58051832     0.07500
C2044       C  0.63722366  0.23899079  0.59001474    -0.02600
Br2045     Br  0.63864443  0.19940727  0.60236007    -0.01200
Br2046     Br  0.56607788  0.20227568  0.60619809    -0.01200
Br2047     Br  0.70212790  0.32839277  0.55337519    -0.01200
Br2048     Br  0.62710653  0.32784249  0.55414014    -0.01200
C2049       C  0.98130887  0.26005969  0.65634704    -0.02300
C2050       C  0.51148187  0.26566642  0.64547934     0.07400
C2051       C  0.54034036  0.26701774  0.65587819    -0.02400
C2052       C  0.53837364  0.26111978  0.67712383    -0.02400
C2053       C  0.50693978  0.25283630  0.68797717     0.07500
C2054       C  0.97846892  0.25251322  0.67737839    -0.02600
Br2055     Br  0.93425052  0.23916341  0.69117247    -0.01200
Br2056     Br  0.94448457  0.26423115  0.64262557    -0.01200
Br2057     Br  0.57969074  0.26615896  0.69115590    -0.01200
Br2058     Br  0.58264266  0.27714726  0.64092249    -0.01200
C2059       C  0.87410027  0.47386637  0.56853064    -0.02300
C2060       C  0.90374146  0.98905788  0.58292026     0.07400
C2061       C  0.89809445  0.01006721  0.59711053    -0.02400
C2062       C  0.86555631  0.00965644  0.59751655    -0.02400
C2063       C  0.83819550  0.98795626  0.58384824     0.07500
C2064       C  0.84155558  0.47351641  0.56910996    -0.02600
Br2065     Br  0.80559922  0.44668744  0.54900926    -0.01200
Br2066     Br  0.88167986  0.44631357  0.54816986    -0.01200
Br2067     Br  0.85794260  0.03750579  0.61770455    -0.01200
Br2068     Br  0.93421080  0.03803141  0.61688430    -0.01200
C2069       C  0.60052417  0.97994588  0.60059492    -0.02300
C2070       C  0.59164405  0.99455844  0.58391759     0.07400
C2071       C  0.61139371  0.51151023  0.56676148    -0.02400
C2072       C  0.64394793  0.51190282  0.56705309    -0.02400
C2073       C  0.65757578  0.99654307  0.58467871     0.07500
C2074       C  0.63353035  0.98126142  0.60104071    -0.02600
Br2075     Br  0.64703744  0.96442755  0.62476850    -0.01200
Br2076     Br  0.56830432  0.95948021  0.62335973    -0.01200
Br2077     Br  0.67629482  0.53169024  0.54429437    -0.01200
Br2078     Br  0.59913296  0.52997093  0.54328064    -0.01200
C2079       C  0.99053691  0.48229664  0.65771289    -0.02300
C2080       C  0.50189293  0.00711130  0.64445932     0.07400
C2081       C  0.51352849  0.04157011  0.65257752    -0.02400
C2082       C  0.51377959  0.04702910  0.67390882    -0.02400
C2083       C  0.50356086  0.01886237  0.68763025     0.07500
C2084       C  0.99203335  0.48785716  0.67905567    -0.02600
Br2085     Br  0.97816670  0.44831151  0.69739229    -0.01200
Br2086     Br  0.97709932  0.43523578  0.64839610    -0.01200
Br2087     Br  0.52950674  0.09385405  0.68452075    -0.01200
Br2088     Br  0.52980123  0.08287766  0.63537190    -0.01200
C2089       C  0.72424291  0.24277120  0.84321985    -0.02300
C2090       C  0.73542302  0.27279718  0.85566502     0.07400
C2091       C  0.74820680  0.30616981  0.84642319    -0.02400
C2092       C  0.75130020  0.30961127  0.82493826    -0.02400
C2093       C  0.74189954  0.27976624  0.81257444     0.07500
C2094       C  0.72778401  0.24625075  0.82180161    -0.02600
Br2095     Br  0.71169258  0.20461867  0.80508440    -0.01200
Br2096     Br  0.70190106  0.19645529  0.85546980    -0.01200
Br2097     Br  0.77021602  0.35560430  0.81257961    -0.01200
Br2098     Br  0.76311762  0.34760360  0.86313669    -0.01200
C2099       C  0.78586180  0.99964430  0.84532198    -0.02300
C2100       C  0.75336806  0.97947496  0.85566475     0.07400
C2101       C  0.72519506  0.45764271  0.84446405    -0.02400
C2102       C  0.72513796  0.46082018  0.82301322    -0.02400
C2103       C  0.75515551  0.98376556  0.81250443     0.07500
C2104       C  0.78685692  0.00108577  0.82379580    -0.02600
Br2105     Br  0.83161966  0.02781492  0.80981556    -0.01200
Br2106     Br  0.82883006  0.02726804  0.86057104    -0.01200
Br2107     Br  0.68108372  0.43641594  0.80817068    -0.01200
Br2108     Br  0.68217431  0.42525759  0.85850619    -0.01200
C2109       C  0.91177781  0.10636518  0.91001023    -0.11900
C2110       C  0.91313175  0.13874879  0.91440906     0.07400
C2111       C  0.88162488  0.13809048  0.92066357    -0.02400
C2112       C  0.84902996  0.10620156  0.92099567    -0.02400
C2113       C  0.84730864  0.07387241  0.91581132     0.07500
C2114       C  0.87928124  0.07421120  0.91089463    -0.02600
Br2115     Br  0.87974795  0.03105212  0.90493787    -0.01200
Br2116     Br  0.95412778  0.10504138  0.90247630    -0.01200
Br2117     Br  0.80736718  0.10779188  0.93001109    -0.01200
Br2118     Br  0.88275860  0.18029078  0.93086946    -0.01200
C2119       C  0.62440097  0.32861634  0.92827838    -0.02300
C2120       C  0.59429409  0.32694041  0.91888073     0.07400
C2121       C  0.59679996  0.35852018  0.91141838    -0.02400
C2122       C  0.62960536  0.39031086  0.91151484    -0.02400
C2123       C  0.66042936  0.39125964  0.91937633     0.07500
C2124       C  0.65715925  0.36038489  0.92844077    -0.02600
Br2125     Br  0.69674978  0.36143309  0.94255694    -0.01200
Br2126     Br  0.62065931  0.28827799  0.94277307    -0.01200
Br2127     Br  0.63140792  0.43204414  0.90012164    -0.01200
Br2128     Br  0.55572637  0.35938717  0.90085997    -0.01200
C2129       C  0.99866447  0.20204775  0.84177527    -0.02300
C2130       C  0.51272197  0.23360603  0.85315985     0.07400
C2131       C  0.52850537  0.26605421  0.84262055    -0.02400
C2132       C  0.52778751  0.26676736  0.82114913    -0.02400
C2133       C  0.51222353  0.23502593  0.80999254     0.07500
C2134       C  0.99893540  0.20278765  0.82022069    -0.02600
Br2135     Br  0.97909806  0.15924493  0.80497275    -0.01200
Br2136     Br  0.97642800  0.15729699  0.85569900    -0.01200
Br2137     Br  0.54938150  0.31148796  0.80696686    -0.01200
Br2138     Br  0.55302970  0.30979383  0.85742946    -0.01200
C2139       C  0.85451267  0.36368121  0.90095039    -0.02300
C2140       C  0.82889445  0.35805828  0.91605631     0.07400
C2141       C  0.83567591  0.38537664  0.93000133    -0.02400
C2142       C  0.86784721  0.41772815  0.92903576    -0.02400
C2143       C  0.89360381  0.42319639  0.91406148     0.07500
C2144       C  0.88654214  0.39611484  0.89989610    -0.02600
Br2145     Br  0.91980965  0.40406446  0.87812415    -0.01200
Br2146     Br  0.84537577  0.32766159  0.88088431    -0.01200
Br2147     Br  0.87713102  0.45370407  0.94913741    -0.01200
Br2148     Br  0.80190661  0.37792957  0.95137122    -0.01200
C2149       C  0.61120897  0.10995322  0.92805064    -0.02300
C2150       C  0.58286126  0.10465939  0.91527488     0.07400
C2151       C  0.58676948  0.13247114  0.90252077    -0.02400
C2152       C  0.61805684  0.16560014  0.90314956    -0.02400
C2153       C  0.64618930  0.17108695  0.91618036     0.07500
C2154       C  0.64266665  0.14299023  0.92852293    -0.02600
Br2155     Br  0.68010857  0.15016739  0.94713413    -0.01200
Br2156     Br  0.60666490  0.07248870  0.94564499    -0.01200
Br2157     Br  0.62272593  0.20291219  0.88534637    -0.01200
Br2158     Br  0.55031681  0.12463655  0.88295156    -0.01200
C2159       C  0.96595821  0.01977779  0.82011483    -0.02300
C2160       C  0.49925801  0.03413526  0.81040524     0.07400
C2161       C  0.52721008  0.54264075  0.82204327    -0.02400
C2162       C  0.52397704  0.53775575  0.84337308    -0.02400
C2163       C  0.49324611  0.02465454  0.85336832     0.07500
C2164       C  0.96301324  0.01494947  0.84151831    -0.02600
Br2165     Br  0.91683799  0.99219262  0.85426238    -0.01200
Br2166     Br  0.92367938  0.00416371  0.80393090    -0.01200
Br2167     Br  0.56577963  0.54957740  0.85933785    -0.01200
Br2168     Br  0.57345785  0.56290856  0.80940928    -0.01200
C2169       C  0.77310011  0.26877112  0.98868704    -0.02300
C2170       C  0.74070125  0.25802281  0.97868368     0.07400
C2171       C  0.70936349  0.24437579  0.99033084    -0.02400
C2172       C  0.71027949  0.24174591  0.01187159    -0.02400
C2173       C  0.74289890  0.25204641  0.02224914     0.07500
C2174       C  0.77433280  0.26529511  0.01013127    -0.02600
Br2175     Br  0.82006243  0.27850792  0.02190796    -0.01200
Br2176     Br  0.81656983  0.29045319  0.97292605    -0.01200
Br2177     Br  0.66568517  0.22425211  0.02625708    -0.01200
Br2178     Br  0.66449681  0.22776268  0.97649568    -0.01200
C2179       C  0.77160176  0.36913625  0.09894831    -0.02300
C2180       C  0.74807249  0.34167611  0.08582605     0.07400
C2181       C  0.72707290  0.34813650  0.07198675    -0.02400
C2182       C  0.72976918  0.38159763  0.07117244    -0.02400
C2183       C  0.75263221  0.40873869  0.08461577     0.07500
C2184       C  0.77387161  0.40246851  0.09833805    -0.02600
Br2185     Br  0.80528816  0.43906752  0.11690529    -0.01200
Br2186     Br  0.79948596  0.36072345  0.11872022    -0.01200
Br2187     Br  0.70408219  0.39102347  0.05036001    -0.01200
Br2188     Br  0.69562826  0.31184144  0.05329183    -0.01200
C2189       C  0.76889111  0.15117292  0.06909901    -0.02300
C2190       C  0.74745226  0.15630368  0.08339621     0.07400
C2191       C  0.72764372  0.12946229  0.09780848    -0.02400
C2192       C  0.72910705  0.09790008  0.09781857    -0.02400
C2193       C  0.75067104  0.09288652  0.08356332     0.07500
C2194       C  0.77052025  0.11973774  0.06920810    -0.02600
Br2195     Br  0.79875039  0.11287674  0.04886604    -0.01200
Br2196     Br  0.79504878  0.18653963  0.04858315    -0.01200
Br2197     Br  0.70300942  0.06238342  0.11827293    -0.01200
Br2198     Br  0.70033487  0.13672508  0.11860215    -0.01200
C2199       C  0.72310332  0.48751543  0.00989552    -0.02300
C2200       C  0.75417830  0.99774942  0.02216314     0.07400
C2201       C  0.78187287  0.99595903  0.01177570    -0.02400
C2202       C  0.78190366  0.99390769  0.99023498    -0.02400
C2203       C  0.75316197  0.99121567  0.97879914     0.07500
C2204       C  0.72356536  0.48271069  0.98857132    -0.02600
Br2205     Br  0.68121896  0.46928067  0.97275313    -0.01200
Br2206     Br  0.68213125  0.48713344  0.02165713    -0.01200
Br2207     Br  0.82261677  0.99672436  0.97648243    -0.01200
Br2208     Br  0.81910854  0.99392612  0.02674648    -0.01200
C2209       C  0.47273238  0.24555151  0.00780740    -0.02300
C2210       C  0.98967099  0.23187769  0.01957313     0.07400
C2211       C  0.00574579  0.21461218  0.01002308    -0.02400
C2212       C  0.00705595  0.21318690  0.98852194    -0.02400
C2213       C  0.99352735  0.23061736  0.97615319     0.07500
C2214       C  0.47486406  0.24534446  0.98626372    -0.02600
Br2215     Br  0.45157258  0.26620572  0.97125971    -0.01200
Br2216     Br  0.44690655  0.26546787  0.02107530    -0.01200
Br2217     Br  0.02601460  0.18524422  0.97690683    -0.01200
Br2218     Br  0.02470183  0.19131302  0.02664598    -0.01200
C2219       C  0.97090100  0.36961476  0.09220741    -0.02300
C2220       C  0.49276674  0.39656985  0.07817088     0.07400
C2221       C  0.51454716  0.39048310  0.06466429    -0.02400
C2222       C  0.51465518  0.35821056  0.06527198    -0.02400
C2223       C  0.49245236  0.33131592  0.07914419     0.07500
C2224       C  0.97076074  0.33729834  0.09253912    -0.02600
Br2225     Br  0.94171331  0.30202126  0.11249343    -0.01200
Br2226     Br  0.94294394  0.37781155  0.11215155    -0.01200
Br2227     Br  0.54410837  0.35048333  0.04623013    -0.01200
Br2228     Br  0.54295554  0.42554613  0.04448255    -0.01200
C2229       C  0.96385600  0.08357175  0.07084022    -0.02300
C2230       C  0.48861026  0.07920869  0.08285642     0.07400
C2231       C  0.51277940  0.10725557  0.09538721    -0.02400
C2232       C  0.51379130  0.14000085  0.09514842    -0.02400
C2233       C  0.49039057  0.14512178  0.08252753     0.07500
C2234       C  0.96489686  0.11632079  0.07048913    -0.02600
Br2235     Br  0.93379621  0.12258155  0.05202888    -0.01200
Br2236     Br  0.93025173  0.04587290  0.05351117    -0.01200
Br2237     Br  0.54650179  0.17717446  0.11297560    -0.01200
Br2238     Br  0.54317665  0.10037646  0.11408076    -0.01200
C2239       C  0.97332801  0.46689233  0.00566692    -0.02300
C2240       C  0.49018915  0.99539798  0.01904810     0.07400
C2241       C  0.50553720  0.02935008  0.01023597    -0.02400
C2242       C  0.50525453  0.03331773  0.98882758    -0.02400
C2243       C  0.48980121  0.00337855  0.97603978     0.07500
C2244       C  0.97277395  0.47098879  0.98430647    -0.02600
Br2245     Br  0.95076171  0.42974712  0.96701279    -0.01200
Br2246     Br  0.95259311  0.42025545  0.01734774    -0.01200
Br2247     Br  0.52751137  0.07992019  0.97695845    -0.01200
Br2248     Br  0.52595522  0.07058644  0.02752409    -0.01200
C2249       C  0.72918232  0.23826115  0.49269996    -0.02300
C2250       C  0.76007392  0.25817839  0.48089311     0.07400
C2251       C  0.79257420  0.28018479  0.49081942    -0.02400
C2252       C  0.79409310  0.28250090  0.51232278    -0.02400
C2253       C  0.76312837  0.26313596  0.52412393     0.07500
C2254       C  0.73068434  0.24080380  0.51422348    -0.02600
Br2255     Br  0.68764359  0.21532216  0.53002862    -0.01200
Br2256     Br  0.68419528  0.20922891  0.47942713    -0.01200
Br2257     Br  0.83910276  0.31099888  0.52558167    -0.01200
Br2258     Br  0.83557195  0.30634641  0.47504816    -0.01200
C2259       C  0.71267045  0.46792788  0.51137916    -0.02300
C2260       C  0.74481868  0.98626475  0.52220264     0.07400
C2261       C  0.77667602  0.00410578  0.51095433    -0.02400
C2262       C  0.77607988  0.00324295  0.48939347    -0.02400
C2263       C  0.74364185  0.98407088  0.47882755     0.07500
C2264       C  0.71326038  0.46534391  0.48986814    -0.02600
Br2265     Br  0.66961906  0.43581209  0.47540294    -0.01200
Br2266     Br  0.66829103  0.44136166  0.52586417    -0.01200
Br2267     Br  0.82017573  0.02717122  0.47440039    -0.01200
Br2268     Br  0.82156075  0.02785344  0.52508987    -0.01200
C2269       C  0.53106403  0.29830902  0.51036710    -0.02300
C2270       C  0.50712860  0.26905026  0.52231924     0.07400
C2271       C  0.98256708  0.23736081  0.51223055    -0.02400
C2272       C  0.98501094  0.23344105  0.49102455    -0.02400
C2273       C  0.50878167  0.26302525  0.47881537     0.07500
C2274       C  0.53125431  0.29567120  0.48882158    -0.02600
Br2275     Br  0.56414726  0.33762467  0.47379677    -0.01200
Br2276     Br  0.56448491  0.34265580  0.52301412    -0.01200
Br2277     Br  0.95545879  0.18668475  0.47973732    -0.01200
Br2278     Br  0.94275786  0.19980108  0.52685026    -0.01200
C2279       C  0.90783382  0.27412623  0.40276691    -0.02300
C2280       C  0.91489637  0.25474291  0.41743606     0.07400
C2281       C  0.88945257  0.23588654  0.43277936    -0.02400
C2282       C  0.85741555  0.23642575  0.43345972    -0.02400
C2283       C  0.85042342  0.25568186  0.41877491     0.07500
C2284       C  0.87568342  0.27452020  0.40342701    -0.02600
Br2285     Br  0.86540008  0.29928029  0.38252046    -0.01200
Br2286     Br  0.94116261  0.29865905  0.38096331    -0.01200
Br2287     Br  0.82381080  0.21214739  0.45522961    -0.01200
Br2288     Br  0.89878767  0.21064442  0.45371195    -0.01200
C2289       C  0.60597963  0.23307563  0.40405876    -0.02300
C2290       C  0.59988286  0.25422396  0.41795190     0.07400
C2291       C  0.62599987  0.27445713  0.43259770    -0.02400
C2292       C  0.65840001  0.27456501  0.43289670    -0.02400
C2293       C  0.66474294  0.25396827  0.41876599     0.07500
C2294       C  0.63818058  0.23275424  0.40456379    -0.02600
Br2295     Br  0.64625585  0.20412567  0.38518658    -0.01200
Br2296     Br  0.57089208  0.20552679  0.38367081    -0.01200
Br2297     Br  0.69321785  0.30127029  0.45359623    -0.01200
Br2298     Br  0.61652790  0.29999561  0.45335321    -0.01200
C2299       C  0.49899929  0.46049916  0.51065756    -0.02300
C2300       C  0.48989296  0.97936571  0.52112144     0.07400
C2301       C  0.97885244  0.99994222  0.51001188    -0.02400
C2302       C  0.97791223  0.99892929  0.48845139    -0.02400
C2303       C  0.48819759  0.97743763  0.47758383     0.07500
C2304       C  0.50019319  0.45942410  0.48903478    -0.02600
Br2305     Br  0.51575102  0.42989868  0.47594982    -0.01200
Br2306     Br  0.51232862  0.43178787  0.52657555    -0.01200
Br2307     Br  0.96025123  0.02539034  0.47384054    -0.01200
Br2308     Br  0.96319808  0.02856964  0.52419244    -0.01200
C2309       C  0.89404061  0.00362002  0.40158388    -0.02300
C2310       C  0.89893237  0.98147263  0.41527503     0.07400
C2311       C  0.87729821  0.46266714  0.43020586    -0.02400
C2312       C  0.84518297  0.46311209  0.43082638    -0.02400
C2313       C  0.83609292  0.98558058  0.41676972     0.07500
C2314       C  0.86296013  0.00601043  0.40247941    -0.02600
Br2315     Br  0.85686943  0.03629782  0.38342838    -0.01200
Br2316     Br  0.92880415  0.02881660  0.38050702    -0.01200
Br2317     Br  0.81046511  0.43621964  0.45159080    -0.01200
Br2318     Br  0.88601217  0.43526485  0.45012502    -0.01200
C2319       C  0.62580133  0.45962809  0.40290303    -0.02300
C2320       C  0.65082021  0.98538982  0.41647375     0.07400
C2321       C  0.64222845  0.00208698  0.43212277    -0.02400
C2322       C  0.60931439  0.00096118  0.43195961    -0.02400
C2323       C  0.58486700  0.98337594  0.41606263     0.07500
C2324       C  0.59339366  0.45954083  0.40258372    -0.02600
Br2325     Br  0.55713224  0.42938370  0.38337880    -0.01200
Br2326     Br  0.63328632  0.43007774  0.38388700    -0.01200
Br2327     Br  0.59705684  0.02210256  0.45413498    -0.01200
Br2328     Br  0.67461470  0.02475325  0.45452140    -0.01200
C2329       C  0.73067214  0.25812799  0.17974215    -0.02300
C2330       C  0.75221551  0.24728624  0.18993116     0.07400
C2331       C  0.77245467  0.23643078  0.17830084    -0.02400
C2332       C  0.77106596  0.23629443  0.15671863    -0.02400
C2333       C  0.74978487  0.24746483  0.14650618     0.07500
C2334       C  0.72950761  0.25828737  0.15817082    -0.02600
Br2335     Br  0.70134518  0.27518714  0.14472418    -0.01200
Br2336     Br  0.70409401  0.27475656  0.19529332    -0.01200
Br2337     Br  0.79669064  0.21854875  0.14123526    -0.01200
Br2338     Br  0.80085189  0.21997999  0.19189544    -0.01200
C2339       C  0.74630460  0.22007320  0.32470293    -0.02300
C2340       C  0.75758999  0.25117793  0.31339926     0.07400
C2341       C  0.77004564  0.28342017  0.32370558    -0.02400
C2342       C  0.76987895  0.28453123  0.34529714    -0.02400
C2343       C  0.75889961  0.25320437  0.35699494     0.07500
C2344       C  0.74854331  0.22116709  0.34624386    -0.02600
Br2345     Br  0.74004305  0.17857149  0.36010346    -0.01200
Br2346     Br  0.72818848  0.17568258  0.31046383    -0.01200
Br2347     Br  0.78446331  0.32982137  0.35788705    -0.01200
Br2348     Br  0.78616364  0.32618079  0.30798225    -0.01200
C2349       C  0.77242483  0.39814665  0.23682659    -0.02300
C2350       C  0.74898572  0.40278539  0.24973362     0.07400
C2351       C  0.72597218  0.37492082  0.26279256    -0.02400
C2352       C  0.72736547  0.34338025  0.26349033    -0.02400
C2353       C  0.75097444  0.33882063  0.25065517     0.07500
C2354       C  0.77313211  0.36626742  0.23711375    -0.02600
Br2355     Br  0.80324235  0.35978853  0.21791844    -0.01200
Br2356     Br  0.80249761  0.43475910  0.21777412    -0.01200
Br2357     Br  0.69834699  0.30748875  0.28316704    -0.01200
Br2358     Br  0.69336179  0.38016395  0.28056141    -0.01200
C2359       C  0.78008394  0.11978487  0.26526097    -0.02300
C2360       C  0.75915013  0.09321683  0.25098145     0.07400
C2361       C  0.73899157  0.09970917  0.23654144    -0.02400
C2362       C  0.73837236  0.13161356  0.23699434    -0.02400
C2363       C  0.75896887  0.15803944  0.25139950     0.07500
C2364       C  0.78046761  0.15225678  0.26523413    -0.02600
Br2365     Br  0.80957762  0.18818469  0.28479705    -0.01200
Br2366     Br  0.80688112  0.11121856  0.28571001    -0.01200
Br2367     Br  0.71048479  0.13963580  0.21702623    -0.01200
Br2368     Br  0.71407097  0.06597062  0.21506727    -0.01200
C2369       C  0.77876636  0.03438559  0.17834709    -0.02300
C2370       C  0.75977650  0.00215528  0.18897318     0.07400
C2371       C  0.73435776  0.46751961  0.17777758    -0.02400
C2372       C  0.73325477  0.46840944  0.15624851    -0.02400
C2373       C  0.75763175  0.00344070  0.14570854     0.07500
C2374       C  0.77763808  0.03503622  0.15679075    -0.02600
Br2375     Br  0.80180573  0.07960606  0.14255896    -0.01200
Br2376     Br  0.80505304  0.07796724  0.19330268    -0.01200
Br2377     Br  0.70758748  0.42482958  0.14119309    -0.01200
Br2378     Br  0.71132883  0.42272372  0.19183653    -0.01200
C2379       C  0.76200731  0.46954459  0.34366852    -0.02300
C2380       C  0.74713581  0.99045689  0.35539183     0.07400
C2381       C  0.73269159  0.00831688  0.34463647    -0.02400
C2382       C  0.73423707  0.00994385  0.32310142    -0.02400
C2383       C  0.75140760  0.99489110  0.31219208     0.07500
C2384       C  0.76316907  0.47262111  0.32216198    -0.02600
Br2385     Br  0.78622901  0.45261976  0.30624916    -0.01200
Br2386     Br  0.78487536  0.44691905  0.35704078    -0.01200
Br2387     Br  0.71357589  0.03369999  0.30857451    -0.01200
Br2388     Br  0.71018521  0.03018642  0.35931790    -0.01200
C2389       C  0.96233875  0.22872448  0.15507195    -0.02300
C2390       C  0.49388473  0.24035634  0.14351626     0.07400
C2391       C  0.52557458  0.24852209  0.15420741    -0.02400
C2392       C  0.52595609  0.24707245  0.17579905    -0.02400
C2393       C  0.49496221  0.23785445  0.18743163     0.07500
C2394       C  0.96311242  0.22756138  0.17669156    -0.02600
Br2395     Br  0.91812680  0.20910231  0.19101103    -0.01200
Br2396     Br  0.91682195  0.21383078  0.14226560    -0.01200
Br2397     Br  0.56982657  0.25638956  0.18883521    -0.01200
Br2398     Br  0.56961093  0.26154098  0.13998135    -0.01200
C2399       C  0.53437604  0.26467534  0.32218057    -0.02300
C2400       C  0.50155576  0.24383138  0.31178665     0.07400
C2401       C  0.97011218  0.22423123  0.32387384    -0.02400
C2402       C  0.97147899  0.22706113  0.34539727    -0.02400
C2403       C  0.50437973  0.24766915  0.35536971     0.07500
C2404       C  0.53564167  0.26587469  0.34375153    -0.02600
Br2405     Br  0.58084423  0.29162545  0.35755833    -0.01200
Br2406     Br  0.57860960  0.29334163  0.30776611    -0.01200
Br2407     Br  0.92803395  0.20545948  0.36118596    -0.01200
Br2408     Br  0.92417701  0.19370611  0.31175620    -0.01200
C2409       C  0.51244441  0.35659279  0.26442189    -0.02300
C2410       C  0.99602274  0.33131061  0.24907727     0.07400
C2411       C  0.97819182  0.33797663  0.23316880    -0.02400
C2412       C  0.97705119  0.36967873  0.23280634    -0.02400
C2413       C  0.99392234  0.39519412  0.24826334     0.07500
C2414       C  0.51138517  0.38835003  0.26417721    -0.02600
Br2415     Br  0.53121781  0.42100872  0.28669805    -0.01200
Br2416     Br  0.53443470  0.34666232  0.28708886    -0.01200
Br2417     Br  0.95342267  0.37867460  0.21063926    -0.01200
Br2418     Br  0.95698996  0.30460786  0.21109918    -0.01200
C2419       C  0.51767059  0.14015365  0.23508349    -0.02300
C2420       C  0.99929720  0.14770777  0.24951030     0.07400
C2421       C  0.97970265  0.12148369  0.26429840    -0.02400
C2422       C  0.97832454  0.08855075  0.26362484    -0.02400
C2423       C  0.99697887  0.08150351  0.24837361     0.07500
C2424       C  0.51623603  0.10718931  0.23448690    -0.02600
Br2425     Br  0.54082855  0.09749550  0.21306202    -0.01200
Br2426     Br  0.54475640  0.17472169  0.21450173    -0.01200
Br2427     Br  0.95198963  0.05356926  0.28431000    -0.01200
Br2428     Br  0.95628632  0.13118702  0.28639247    -0.01200
C2429       C  0.51215050  0.47320013  0.15237578    -0.02300
C2430       C  0.48944286  0.98448360  0.14239186     0.07400
C2431       C  0.97103713  0.99784639  0.15349264    -0.02400
C2432       C  0.97201798  0.99867523  0.17506658    -0.02400
C2433       C  0.49093830  0.98586970  0.18584242     0.07500
C2434       C  0.51349584  0.47446411  0.17397182    -0.02600
Br2435     Br  0.54059245  0.45722836  0.18826601    -0.01200
Br2436     Br  0.53588817  0.45272350  0.13754717    -0.01200
Br2437     Br  0.94904602  0.02005577  0.18977480    -0.01200
Br2438     Br  0.94606971  0.01735486  0.13906950    -0.01200
C2439       C  0.52330370  0.00828347  0.34280554    -0.02300
C2440       C  0.49234005  0.98535755  0.35378556     0.07400
C2441       C  0.96490945  0.46474808  0.34221575    -0.02400
C2442       C  0.96489311  0.46470113  0.32059402    -0.02400
C2443       C  0.49187536  0.98596897  0.31006164     0.07500
C2444       C  0.52299256  0.00928096  0.32119522    -0.02600
Br2445     Br  0.56577935  0.04403220  0.30756526    -0.01200
Br2446     Br  0.56702831  0.03751318  0.35736113    -0.01200
Br2447     Br  0.92135675  0.43121362  0.30714601    -0.01200
Br2448     Br  0.92073743  0.43820552  0.35696542    -0.01200
O2449       O  0.96422058  0.97503014  0.27699708    -0.72200
O2450       O  0.96302851  0.97245894  0.21874275    -0.72500
O2451       O  0.96116439  0.92883280  0.24849504    -0.72300
O2452       O  0.96788881  0.51891069  0.24691175    -0.72300
O2453       O  0.52553069  0.54675092  0.24688980    -0.72300
O2454       O  0.51793419  0.95483469  0.24727956    -0.72300
O2455       O  0.52396899  0.50236541  0.21758076    -0.72300
O2456       O  0.52489688  0.50223012  0.27597824    -0.72400
V2457       V  0.96467247  0.97412490  0.24786638     1.35200
V2458       V  0.52344033  0.50205153  0.24679359     1.35200
C2459       C  0.49649824  0.48888817  0.28630741     0.77000
C2460       C  0.49496079  0.48788295  0.20787185     0.77000
C2461       C  0.98914417  0.92675957  0.24819037     0.76900
C2462       C  0.99698028  0.54775267  0.24700037     0.76900
O2463       O  0.96789463  0.72327796  0.27934387    -0.72200
O2464       O  0.96296439  0.72259599  0.22115042    -0.72500
O2465       O  0.96731789  0.68024150  0.24966687    -0.72300
O2466       O  0.96311650  0.76522190  0.25077709    -0.72300
O2467       O  0.52039621  0.79602037  0.24846606    -0.72300
O2468       O  0.52519214  0.71115006  0.24881743    -0.72300
O2469       O  0.52072077  0.75220311  0.21959127    -0.72300
O2470       O  0.52482332  0.75560525  0.27774097    -0.72400
V2471       V  0.96643876  0.72338367  0.25021366     1.35200
V2472       V  0.52169558  0.75307342  0.24868989     1.35200
C2473       C  0.49714841  0.74039884  0.28862221     0.77000
C2474       C  0.49129630  0.73745934  0.21035834     0.77000
C2475       C  0.49719032  0.68128187  0.24910395     0.76900
C2476       C  0.49087070  0.79499905  0.24955260     0.76900
O2477       O  0.78032812  0.55380754  0.25153677    -0.72200
O2478       O  0.78357512  0.96882756  0.25100020    -0.72500
O2479       O  0.78101831  0.51123230  0.22206593    -0.72300
O2480       O  0.77755386  0.50798374  0.28029816    -0.72300
O2481       O  0.72534333  0.98403200  0.27900617    -0.72300
O2482       O  0.72950460  0.98745068  0.22097934    -0.72300
O2483       O  0.72620921  0.94163480  0.24944876    -0.72300
O2484       O  0.72289776  0.52633673  0.25092437    -0.72400
V2485       V  0.77818963  0.50923278  0.25116791     1.35200
V2486       V  0.72864205  0.98634477  0.25000546     1.35200
C2487       C  0.75198658  0.55519238  0.25125292     0.77000
C2488       C  0.75446485  0.94011398  0.25017077     0.77000
C2489       C  0.75279511  0.49814047  0.21167483     0.76900
C2490       C  0.74818401  0.49276855  0.28965105     0.76900
O2491       O  0.72531578  0.77743251  0.25114259    -0.72200
O2492       O  0.72535064  0.69033924  0.25149999    -0.72500
O2493       O  0.72489416  0.73392789  0.28049267    -0.72300
O2494       O  0.72568767  0.73400283  0.22223612    -0.72300
O2495       O  0.78321465  0.76311489  0.22240294    -0.72300
O2496       O  0.78246205  0.76195291  0.28065765    -0.72300
O2497       O  0.78279819  0.71884043  0.25114604    -0.72300
O2498       O  0.78271617  0.80590980  0.25192881    -0.72400
V2499       V  0.72643270  0.73444523  0.25135834     1.35200
V2500       V  0.78167559  0.76186016  0.25153643     1.35200
C2501       C  0.75401349  0.80661525  0.25147549     0.77000
C2502       C  0.75407592  0.68965013  0.25124333     0.77000
C2503       C  0.75356760  0.74813069  0.29046791     0.76900
C2504       C  0.75456621  0.74887502  0.21239196     0.76900
O2505       O  0.55362486  0.51107503  0.41498948    -0.72200
O2506       O  0.96663032  0.51153325  0.41582748    -0.72500
O2507       O  0.50998776  0.51015093  0.44458481    -0.72300
O2508       O  0.51020687  0.51256229  0.38635997    -0.72300
O2509       O  0.97923424  0.95532583  0.38591093    -0.72300
O2510       O  0.97593370  0.95110247  0.44414995    -0.72300
O2511       O  0.93366076  0.95280045  0.41460770    -0.72300
O2512       O  0.52151393  0.95365404  0.41527108    -0.72400
V2513       V  0.50959749  0.51021168  0.41545505     1.35200
V2514       V  0.97818628  0.95438855  0.41502227     1.35200
C2515       C  0.55407781  0.48242569  0.41526438     0.77000
C2516       C  0.93737913  0.48300657  0.41515158     0.77000
C2517       C  0.49407351  0.48128913  0.45425675     0.76900
C2518       C  0.49665004  0.48441661  0.37599924     0.76900
O2519       O  0.53585143  0.73084677  0.41789449    -0.72200
O2520       O  0.95005127  0.73335830  0.41826125    -0.72500
O2521       O  0.99058771  0.72819102  0.38901160    -0.72300
O2522       O  0.99595466  0.73712664  0.44684186    -0.72300
O2523       O  0.52366005  0.79296424  0.44420384    -0.72300
O2524       O  0.52049338  0.78449923  0.38610618    -0.72300
O2525       O  0.97918504  0.79026802  0.41510739    -0.72300
O2526       O  0.56542758  0.78786114  0.41547638    -0.72400
V2527       V  0.99379163  0.73370433  0.41792021     1.35200
V2528       V  0.52160256  0.78766972  0.41521574     1.35200
C2529       C  0.56536467  0.75899376  0.41689834     0.77000
C2530       C  0.94981640  0.76203689  0.41692782     0.77000
C2531       C  0.50459797  0.75449377  0.37766988     0.76900
C2532       C  0.51004538  0.76607326  0.45562251     0.76900
O2533       O  0.72853550  0.95641037  0.44573370    -0.72200
O2534       O  0.73107219  0.95953779  0.38737323    -0.72500
O2535       O  0.77312765  0.95781858  0.41670600    -0.72300
O2536       O  0.68593347  0.95754501  0.41623216    -0.72300
O2537       O  0.71629464  0.51136531  0.41648634    -0.72300
O2538       O  0.80411320  0.51246426  0.41734401    -0.72300
O2539       O  0.76058302  0.51179613  0.38795656    -0.72300
O2540       O  0.75966541  0.51252630  0.44599065    -0.72400
V2541       V  0.73019530  0.95895180  0.41654895     1.35200
V2542       V  0.75965634  0.51089116  0.41696876     1.35200
C2543       C  0.74570112  0.48422634  0.45618167     0.77000
C2544       C  0.74597712  0.48319921  0.37807672     0.77000
C2545       C  0.80494177  0.48398150  0.41721430     0.76900
C2546       C  0.68724559  0.48256466  0.41673071     0.76900
O2547       O  0.77075617  0.78996343  0.44657243    -0.72200
O2548       O  0.77056722  0.78332106  0.38865153    -0.72500
O2549       O  0.72653806  0.78595891  0.41668705    -0.72300
O2550       O  0.81436285  0.78738699  0.41844979    -0.72300
O2551       O  0.78629890  0.73016153  0.41864380    -0.72300
O2552       O  0.69857201  0.72917391  0.42074629    -0.72300
O2553       O  0.73921192  0.72663846  0.39061689    -0.72300
O2554       O  0.74539323  0.73294767  0.44877907    -0.72400
V2555       V  0.76995436  0.78555509  0.41763779     1.35200
V2556       V  0.74293110  0.73077104  0.41966838     1.35200
C2557       C  0.75869344  0.76262266  0.45756574     0.77000
C2558       C  0.75436940  0.75397856  0.37956068     0.77000
C2559       C  0.69757892  0.75737306  0.41870377     0.76900
C2560       C  0.81531403  0.75901540  0.41841287     0.76900
O2561       O  0.96052848  0.97535993  0.05159342    -0.72200
O2562       O  0.96049197  0.97007490  0.10978930    -0.72500
O2563       O  0.96136920  0.51645515  0.08175783    -0.72300
O2564       O  0.96119184  0.92947764  0.07897954    -0.72300
O2565       O  0.51904578  0.95860613  0.07960065    -0.72300
O2566       O  0.51879956  0.54590551  0.08135166    -0.72300
O2567       O  0.52049147  0.50076384  0.10876330    -0.72300
O2568       O  0.51936316  0.50574037  0.05059054    -0.72400
V2569       V  0.96163380  0.97313154  0.08069377     1.35200
V2570       V  0.51879560  0.50244558  0.07966635     1.35200
C2571       C  0.49036586  0.49257350  0.04095166     0.77000
C2572       C  0.49190444  0.48553814  0.11888207     0.77000
C2573       C  0.48968895  0.54579546  0.08205309     0.76900
C2574       C  0.49047007  0.92929624  0.07913594     0.76900
O2575       O  0.96113929  0.67989093  0.08309207    -0.72200
O2576       O  0.96217225  0.76733894  0.08073689    -0.72500
O2577       O  0.96306109  0.72249471  0.05287772    -0.72300
O2578       O  0.96028281  0.72471730  0.11107935    -0.72300
O2579       O  0.51814560  0.75136407  0.11179336    -0.72300
O2580       O  0.52065658  0.75176147  0.05367671    -0.72300
O2581       O  0.51973803  0.79547135  0.08249582    -0.72300
O2582       O  0.51885128  0.70790674  0.08283066    -0.72400
V2583       V  0.96277251  0.72417258  0.08197756     1.35200
V2584       V  0.51823026  0.75112755  0.08270281     1.35200
C2585       C  0.48994507  0.67891542  0.08305457     0.77000
C2586       C  0.49116541  0.79635853  0.08132292     0.77000
C2587       C  0.99235358  0.73675283  0.04345224     0.76900
C2588       C  0.98855246  0.73804038  0.12144708     0.76900
O2589       O  0.72613894  0.98527651  0.05527272    -0.72200
O2590       O  0.72768902  0.98935022  0.11345291    -0.72500
O2591       O  0.72135501  0.52843455  0.08255615    -0.72300
O2592       O  0.72882258  0.94515882  0.08524095    -0.72300
O2593       O  0.78621986  0.97538322  0.08348085    -0.72300
O2594       O  0.77875979  0.55833817  0.08399372    -0.72300
O2595       O  0.78026717  0.51535886  0.11304922    -0.72300
O2596       O  0.78016662  0.51519071  0.05491164    -0.72400
V2597       V  0.72792376  0.98810623  0.08434704     1.35200
V2598       V  0.77902637  0.51478633  0.08398512     1.35200
C2599       C  0.75183207  0.49755624  0.04491448     0.77000
C2600       C  0.75156874  0.50153482  0.12303810     0.77000
C2601       C  0.74953643  0.55804449  0.08315428     0.76900
C2602       C  0.75808183  0.94567799  0.08431588     0.76900
O2603       O  0.77647411  0.76476271  0.05470186    -0.72200
O2604       O  0.78062109  0.76266290  0.11299058    -0.72500
O2605       O  0.77699306  0.71930430  0.08259713    -0.72300
O2606       O  0.78092235  0.80811935  0.08503049    -0.72300
O2607       O  0.72351341  0.78164560  0.08542976    -0.72300
O2608       O  0.71971726  0.69238283  0.08487958    -0.72300
O2609       O  0.72326961  0.73740328  0.11424940    -0.72300
O2610       O  0.71952675  0.73641761  0.05616249    -0.72400
V2611       V  0.77764875  0.76312897  0.08386381     1.35200
V2612       V  0.72260183  0.73746990  0.08517406     1.35200
C2613       C  0.74719713  0.75101108  0.04528535     0.77000
C2614       C  0.75250540  0.75004256  0.12356562     0.77000
C2615       C  0.74783942  0.69063417  0.08347706     0.76900
C2616       C  0.75298624  0.81017663  0.08528546     0.76900
O2617       O  0.51755845  0.57193352  0.91653905    -0.72200
O2618       O  0.93162302  0.98484114  0.91485621    -0.72500
O2619       O  0.97389892  0.52523359  0.94464490    -0.72300
O2620       O  0.97355011  0.53274979  0.88651592    -0.72300
O2621       O  0.50315799  0.00196023  0.88428927    -0.72300
O2622       O  0.50423869  0.99454490  0.94212643    -0.72300
O2623       O  0.95923439  0.95522562  0.91257087    -0.72300
O2624       O  0.54536247  0.54250712  0.91370576    -0.72400
V2625       V  0.97414414  0.52840868  0.91551951     1.35200
V2626       V  0.50300150  0.99882162  0.91326418     1.35200
C2627       C  0.54652505  0.57191604  0.91520624     0.77000
C2628       C  0.93023387  0.95534194  0.91370177     0.77000
C2629       C  0.48753447  0.50918819  0.95315808     0.76900
C2630       C  0.48768176  0.51964593  0.87547145     0.76900
O2631       O  0.98115661  0.74105246  0.94307786    -0.72200
O2632       O  0.99423491  0.74871170  0.88543270    -0.72500
O2633       O  0.94707137  0.69971342  0.91100188    -0.72300
O2634       O  0.52849715  0.79035665  0.91789579    -0.72300
O2635       O  0.56159198  0.76659788  0.91525921    -0.72300
O2636       O  0.97875115  0.67557751  0.91780611    -0.72300
O2637       O  0.52073733  0.71808651  0.88721609    -0.72300
O2638       O  0.52020996  0.72469189  0.94534593    -0.72400
V2639       V  0.98828480  0.74451983  0.91429563     1.35200
V2640       V  0.51983085  0.72160818  0.91629303     1.35200
C2641       C  0.99958068  0.73298316  0.95435239     0.77000
C2642       C  0.00866760  0.73350855  0.87640958     0.77000
C2643       C  0.94848187  0.67207767  0.91469433     0.76900
C2644       C  0.55921713  0.79408339  0.91751555     0.76900
O2645       O  0.72033753  0.92631695  0.91707772    -0.72200
O2646       O  0.81359170  0.50786260  0.91976989    -0.72500
O2647       O  0.76205117  0.96846441  0.94722387    -0.72300
O2648       O  0.76845770  0.96853981  0.88905508    -0.72300
O2649       O  0.73943334  0.49027133  0.88739833    -0.72300
O2650       O  0.74579323  0.50175904  0.94515527    -0.72300
O2651       O  0.78732004  0.53762242  0.91328261    -0.72300
O2652       O  0.69458051  0.95752745  0.91987846    -0.72400
V2653       V  0.76474491  0.96893861  0.91812856     1.35200
V2654       V  0.74316425  0.49546893  0.91632423     1.35200
C2655       C  0.69199676  0.92747309  0.91909301     0.77000
C2656       C  0.81582343  0.53743281  0.91664510     0.77000
C2657       C  0.75524242  0.48414893  0.95615842     0.76900
C2658       C  0.75617079  0.47758522  0.87825147     0.76900
O2659       O  0.76671552  0.82164225  0.91854886    -0.72200
O2660       O  0.67959488  0.73431769  0.91871638    -0.72500
O2661       O  0.72552433  0.77556706  0.94779892    -0.72300
O2662       O  0.72108665  0.78054592  0.88972451    -0.72300
O2663       O  0.75082643  0.75305483  0.88675391    -0.72300
O2664       O  0.75366595  0.74653621  0.94458298    -0.72300
O2665       O  0.70858075  0.70619008  0.91512729    -0.72300
O2666       O  0.79570956  0.79342626  0.91615131    -0.72400
V2667       V  0.72374926  0.77743876  0.91868363     1.35200
V2668       V  0.75159737  0.75033954  0.91572659     1.35200
C2669       C  0.79613590  0.82252949  0.91706600     0.77000
C2670       C  0.67920146  0.70534218  0.91679922     0.77000
C2671       C  0.74027792  0.76005764  0.95608894     0.76900
C2672       C  0.73578530  0.76812989  0.87836578     0.76900
O2673       O  0.98160074  0.95688108  0.55578463    -0.72200
O2674       O  0.98582987  0.97019427  0.61385453    -0.72500
O2675       O  0.93955904  0.96188860  0.58424848    -0.72300
O2676       O  0.52825611  0.96463556  0.58558077    -0.72300
O2677       O  0.55221708  0.52422811  0.57989273    -0.72300
O2678       O  0.96470014  0.52403538  0.58033264    -0.72300
O2679       O  0.51200081  0.53044807  0.60881187    -0.72300
O2680       O  0.50531969  0.51777968  0.55122986    -0.72400
V2681       V  0.98438588  0.96438049  0.58478265     1.35200
V2682       V  0.50792558  0.52294426  0.58011825     1.35200
C2683       C  0.49127521  0.48743036  0.54327766     0.77000
C2684       C  0.49749504  0.50476048  0.62103224     0.77000
C2685       C  0.93560070  0.49538755  0.58184881     0.76900
C2686       C  0.55308682  0.49612135  0.58283549     0.76900
O2687       O  0.95284560  0.74223783  0.58230756    -0.72200
O2688       O  0.53956603  0.74135470  0.58377362    -0.72500
O2689       O  0.99321705  0.73842911  0.61223426    -0.72300
O2690       O  0.99925455  0.74462052  0.55460469    -0.72300
O2691       O  0.52306940  0.80094164  0.55608701    -0.72300
O2692       O  0.52601796  0.79533541  0.61432738    -0.72300
O2693       O  0.56809333  0.79831894  0.58365604    -0.72300
O2694       O  0.98177822  0.79863883  0.58728612    -0.72400
V2695       V  0.99673682  0.74274534  0.58336222     1.35200
V2696       V  0.52427434  0.79727658  0.58525350     1.35200
C2697       C  0.95254312  0.77075483  0.58473347     0.77000
C2698       C  0.56884526  0.76987711  0.58339277     0.77000
C2699       C  0.50934986  0.76568103  0.62309453     0.76900
C2700       C  0.51056597  0.77323740  0.54527593     0.76900
O2701       O  0.75747649  0.52194599  0.55421719    -0.72200
O2702       O  0.76029296  0.52523663  0.61264978    -0.72500
O2703       O  0.80195418  0.52300023  0.58304940    -0.72300
O2704       O  0.71558221  0.52474003  0.58370955    -0.72300
O2705       O  0.68978284  0.96568208  0.58464250    -0.72300
O2706       O  0.77488384  0.96125207  0.58489327    -0.72300
O2707       O  0.73317459  0.96592711  0.61365557    -0.72300
O2708       O  0.73115932  0.96073716  0.55567211    -0.72400
V2709       V  0.75819083  0.52267264  0.58343192     1.35200
V2710       V  0.73284815  0.96452706  0.58467216     1.35200
C2711       C  0.74355534  0.49265894  0.54490538     0.77000
C2712       C  0.74529405  0.49705130  0.62304424     0.77000
C2713       C  0.80199173  0.49419294  0.58405228     0.76900
C2714       C  0.68611789  0.49640024  0.58371051     0.76900
O2715       O  0.77821110  0.80334000  0.55514200    -0.72200
O2716       O  0.77797704  0.80795062  0.61332172    -0.72500
O2717       O  0.82223174  0.80669192  0.58535103    -0.72300
O2718       O  0.73356365  0.80382186  0.58373348    -0.72300
O2719       O  0.70676091  0.74692398  0.58391225    -0.72300
O2720       O  0.79452275  0.74984135  0.58705644    -0.72300
O2721       O  0.74926252  0.75072943  0.61476530    -0.72300
O2722       O  0.75183159  0.74623481  0.55669033    -0.72400
V2723       V  0.77750884  0.80441678  0.58433427     1.35200
V2724       V  0.75120004  0.74958164  0.58563743     1.35200
C2725       C  0.76481935  0.77396489  0.54599958     0.77000
C2726       C  0.76333871  0.78012823  0.62390473     0.77000
C2727       C  0.82349312  0.77854439  0.58686130     0.76900
C2728       C  0.70483068  0.77467703  0.58346411     0.76900
O2729       O  0.97531968  0.97311161  0.75130218    -0.72200
O2730       O  0.56093394  0.56059257  0.74982806    -0.72500
O2731       O  0.51734451  0.01966445  0.77930564    -0.72300
O2732       O  0.52041272  0.01335128  0.72158574    -0.72300
O2733       O  0.98955030  0.54282341  0.71809786    -0.72300
O2734       O  0.98761676  0.54931659  0.77621281    -0.72300
O2735       O  0.53281764  0.58958135  0.74653200    -0.72300
O2736       O  0.94634650  0.00139231  0.74855874    -0.72400
V2737       V  0.51842097  0.01734561  0.75040523     1.35200
V2738       V  0.98941608  0.54590110  0.74718451     1.35200
C2739       C  0.94593426  0.97244213  0.75023578     0.77000
C2740       C  0.56192916  0.58992478  0.74825217     0.77000
C2741       C  0.50001585  0.53445754  0.78739276     0.76900
C2742       C  0.50362798  0.52697773  0.70966766     0.76900
O2743       O  0.51722572  0.72737147  0.71881098    -0.72200
O2744       O  0.52343851  0.72426514  0.77663476    -0.72500
O2745       O  0.97647474  0.68222665  0.74835611    -0.72300
O2746       O  0.56411779  0.76918873  0.74709755    -0.72300
O2747       O  0.53588808  0.79795093  0.75120667    -0.72300
O2748       O  0.94803366  0.71113292  0.75049452    -0.72300
O2749       O  0.99347279  0.75137260  0.77967239    -0.72300
O2750       O  0.99074748  0.75789894  0.72198943    -0.72400
V2751       V  0.51976096  0.72633658  0.74776869     1.35200
V2752       V  0.99248210  0.75390320  0.75078293     1.35200
C2753       C  0.50401401  0.74423568  0.71048495     0.77000
C2754       C  0.50933387  0.73728916  0.78796253     0.77000
C2755       C  0.94731101  0.68188569  0.74963886     0.76900
C2756       C  0.56500059  0.79839568  0.74907444     0.76900
O2757       O  0.77061457  0.97388769  0.77914385    -0.72200
O2758       O  0.77198171  0.98129741  0.72126947    -0.72500
O2759       O  0.81392760  0.52089133  0.75075743    -0.72300
O2760       O  0.72818991  0.93332281  0.74873657    -0.72300
O2761       O  0.69797093  0.96024105  0.75179198    -0.72300
O2762       O  0.78403746  0.54832212  0.75296123    -0.72300
O2763       O  0.73850189  0.50656277  0.72372563    -0.72300
O2764       O  0.74272791  0.50102964  0.78171677    -0.72400
V2765       V  0.77059766  0.97803154  0.75020993     1.35200
V2766       V  0.74145537  0.50354593  0.75267901     1.35200
C2767       C  0.75717767  0.48518862  0.78990544     0.77000
C2768       C  0.75372477  0.49491968  0.71220141     0.77000
C2769       C  0.81371593  0.54962457  0.75182305     0.76900
C2770       C  0.69836073  0.93165134  0.74993891     0.76900
O2771       O  0.73452240  0.79580279  0.77936369    -0.72200
O2772       O  0.74265247  0.79754578  0.72138674    -0.72500
O2773       O  0.69535096  0.75287684  0.74881087    -0.72300
O2774       O  0.78198744  0.84051746  0.75168976    -0.72300
O2775       O  0.81122204  0.81235918  0.75334972    -0.72300
O2776       O  0.72449866  0.72481542  0.75132122    -0.72300
O2777       O  0.77099745  0.76860500  0.72329059    -0.72300
O2778       O  0.76434766  0.76827256  0.78131687    -0.72400
V2779       V  0.73922774  0.79617291  0.75037336     1.35200
V2780       V  0.76727208  0.76914078  0.75229341     1.35200
C2781       C  0.74756973  0.78118244  0.79020225     0.77000
C2782       C  0.75784339  0.78307610  0.71240673     0.77000
C2783       C  0.69505705  0.72382841  0.74974003     0.76900
C2784       C  0.81142305  0.84135104  0.75263706     0.76900
C2785       C  0.88913154  0.64074628  0.76655345    -0.02300
C2786       C  0.91313860  0.64805888  0.75024029     0.07400
C2787       C  0.90434582  0.62293927  0.73452130    -0.02400
C2788       C  0.87176441  0.59097955  0.73501755    -0.02400
C2789       C  0.84755910  0.58380051  0.75122128     0.07500
C2790       C  0.85628467  0.60900053  0.76689914    -0.02600
Br2791     Br  0.82391006  0.59960785  0.78933913    -0.01200
Br2792     Br  0.90231827  0.67309311  0.78926281    -0.01200
Br2793     Br  0.85950099  0.55786792  0.71274516    -0.01200
Br2794     Br  0.93633604  0.63281913  0.71178360    -0.01200
C2795       C  0.62744904  0.83662666  0.76166189    -0.02300
C2796       C  0.59930860  0.83227690  0.74899406     0.07400
C2797       C  0.60415364  0.86041271  0.73625402    -0.02400
C2798       C  0.63651559  0.89269440  0.73646374    -0.02400
C2799       C  0.66462920  0.89714926  0.74925661     0.07500
C2800       C  0.66004217  0.86864607  0.76160879    -0.02600
Br2801     Br  0.69775706  0.87352922  0.77926648    -0.01200
Br2802     Br  0.62069642  0.79949304  0.78023544    -0.01200
Br2803     Br  0.64286166  0.93005810  0.71815013    -0.01200
Br2804     Br  0.56715470  0.85424973  0.71756953    -0.01200
C2805       C  0.88647315  0.93062771  0.73518059    -0.02300
C2806       C  0.91167760  0.93876075  0.75085621     0.07400
C2807       C  0.90339241  0.91525856  0.76743560    -0.02400
C2808       C  0.87024585  0.88390844  0.76829956    -0.02400
C2809       C  0.84540758  0.87536961  0.75239113     0.07500
C2810       C  0.85361984  0.89898296  0.73587256    -0.02600
Br2811     Br  0.82054434  0.88734996  0.71360261    -0.01200
Br2812     Br  0.89746935  0.96210808  0.71216188    -0.01200
Br2813     Br  0.85790887  0.85373469  0.79198064    -0.01200
Br2814     Br  0.93671966  0.92673907  0.78954078    -0.01200
C2815       C  0.63217363  0.68434583  0.76165528    -0.02300
C2816       C  0.66104922  0.68949703  0.74927931     0.07400
C2817       C  0.65732960  0.66149927  0.73671967    -0.02400
C2818       C  0.62502012  0.62911038  0.73628360    -0.02400
C2819       C  0.59620521  0.62398406  0.74869172     0.07500
C2820       C  0.60017092  0.65174602  0.76152442    -0.02600
Br2821     Br  0.56255073  0.64461284  0.78008403    -0.01200
Br2822     Br  0.63676274  0.72122518  0.77982585    -0.01200
Br2823     Br  0.61974683  0.59252069  0.71766836    -0.01200
Br2824     Br  0.69585974  0.66779929  0.71920182    -0.01200
C2825       C  0.79267217  0.78945111  0.65803921    -0.02300
C2826       C  0.76248957  0.78194210  0.64645203     0.07400
C2827       C  0.73140493  0.77618858  0.65642869    -0.02400
C2828       C  0.72955269  0.77552240  0.67792805    -0.02400
C2829       C  0.75967332  0.78278730  0.68970292     0.07500
C2830       C  0.79145041  0.79020305  0.67959546    -0.02600
Br2831     Br  0.83399873  0.80307769  0.69499494    -0.01200
Br2832     Br  0.83584679  0.79917567  0.64423450    -0.01200
Br2833     Br  0.68470558  0.76223589  0.69094533    -0.01200
Br2834     Br  0.69196425  0.77133960  0.64059065    -0.01200
C2835       C  0.75384243  0.02299258  0.67878063    -0.02300
C2836       C  0.75147033  0.49589755  0.68939240     0.07400
C2837       C  0.75079083  0.46856115  0.67744214    -0.02400
C2838       C  0.75047623  0.47002350  0.65592607    -0.02400
C2839       C  0.74754540  0.49710065  0.64586486     0.07500
C2840       C  0.75168996  0.02274014  0.65720448    -0.02600
Br2841     Br  0.74544874  0.05855037  0.64370529    -0.01200
Br2842     Br  0.75721124  0.06283777  0.69358219    -0.01200
Br2843     Br  0.75627477  0.43540960  0.64052196    -0.01200
Br2844     Br  0.74782518  0.42719885  0.69015182    -0.01200
C2845       C  0.88817488  0.74491156  0.59394964    -0.02300
C2846       C  0.91922076  0.77213589  0.58484027     0.07400
C2847       C  0.91919594  0.80232771  0.57712282    -0.02400
C2848       C  0.88904959  0.80600579  0.57923528    -0.02400
C2849       C  0.85755070  0.77830721  0.58785341     0.07500
C2850       C  0.85803847  0.74856479  0.59611999    -0.02600
Br2851     Br  0.81904266  0.71390410  0.61253281    -0.01200
Br2852     Br  0.88589829  0.70197335  0.60356952    -0.01200
Br2853     Br  0.89274049  0.85010003  0.57073917    -0.01200
Br2854     Br  0.95925257  0.83764674  0.56164740    -0.01200
C2855       C  0.60643437  0.74241406  0.59150065    -0.02300
C2856       C  0.60321741  0.77026432  0.58272103     0.07400
C2857       C  0.63328195  0.79878548  0.57339542    -0.02400
C2858       C  0.66626411  0.80014735  0.57355738    -0.02400
C2859       C  0.66973038  0.77278362  0.58280622     0.07500
C2860       C  0.63925554  0.74342015  0.59131866    -0.02600
Br2861     Br  0.64123648  0.70397427  0.60348590    -0.01200
Br2862     Br  0.56662680  0.70288173  0.60487285    -0.01200
Br2863     Br  0.70588986  0.83911396  0.55974458    -0.01200
Br2864     Br  0.62991726  0.83582988  0.55912096    -0.01200
C2865       C  0.97846269  0.75592013  0.65671618    -0.02300
C2866       C  0.50889783  0.76247407  0.64552299     0.07400
C2867       C  0.53770684  0.76316162  0.65560957    -0.02400
C2868       C  0.53594824  0.75646308  0.67675524    -0.02400
C2869       C  0.50509129  0.74899471  0.68797760     0.07500
C2870       C  0.97611753  0.74838078  0.67776382    -0.02600
Br2871     Br  0.93222194  0.73507666  0.69195471    -0.01200
Br2872     Br  0.94085147  0.75912654  0.64325651    -0.01200
Br2873     Br  0.57675586  0.75896007  0.69006014    -0.01200
Br2874     Br  0.57991881  0.77390413  0.64038621    -0.01200
C2875       C  0.87620596  0.96687699  0.56948772    -0.02300
C2876       C  0.90133570  0.49495467  0.58240994     0.07400
C2877       C  0.89532860  0.51486025  0.59724503    -0.02400
C2878       C  0.86267383  0.51422035  0.59797090    -0.02400
C2879       C  0.83578044  0.49378578  0.58378848     0.07500
C2880       C  0.84343118  0.96609495  0.57006682    -0.02600
Br2881     Br  0.80636063  0.93614000  0.55127470    -0.01200
Br2882     Br  0.88397769  0.93899759  0.54942954    -0.01200
Br2883     Br  0.85411939  0.53982408  0.61922219    -0.01200
Br2884     Br  0.93087040  0.54125770  0.61754684    -0.01200
C2885       C  0.59607087  0.48181465  0.59987087    -0.02300
C2886       C  0.58726279  0.49640004  0.58315659     0.07400
C2887       C  0.61634823  0.01102114  0.56791239    -0.02400
C2888       C  0.64926611  0.01216377  0.56835274    -0.02400
C2889       C  0.65247549  0.49696451  0.58364270     0.07500
C2890       C  0.62859278  0.48214872  0.60010554    -0.02600
Br2891     Br  0.64139815  0.46402036  0.62353090    -0.01200
Br2892     Br  0.56458425  0.46297311  0.62303595    -0.01200
Br2893     Br  0.68255450  0.03428050  0.54622338    -0.01200
Br2894     Br  0.60437938  0.03021898  0.54466616    -0.01200
C2895       C  0.99082984  0.97849771  0.65868286    -0.02300
C2896       C  0.49906914  0.51052823  0.64388765     0.07400
C2897       C  0.50921158  0.54447493  0.65222887    -0.02400
C2898       C  0.51026064  0.54961823  0.67361758    -0.02400
C2899       C  0.50195011  0.52152363  0.68713248     0.07500
C2900       C  0.99187526  0.98454707  0.67998426    -0.02600
Br2901     Br  0.97571900  0.94524880  0.69875962    -0.01200
Br2902     Br  0.97454256  0.93056409  0.64986989    -0.01200
Br2903     Br  0.52443530  0.59596978  0.68448584    -0.01200
Br2904     Br  0.52188816  0.58530149  0.63518287    -0.01200
C2905       C  0.72442624  0.74123411  0.84341890    -0.02300
C2906       C  0.73603625  0.77142425  0.85578634     0.07400
C2907       C  0.74958527  0.80483926  0.84647367    -0.02400
C2908       C  0.75261754  0.80810116  0.82497862    -0.02400
C2909       C  0.74244333  0.77802339  0.81269102     0.07500
C2910       C  0.72755035  0.74450423  0.82198683    -0.02600
Br2911     Br  0.70970135  0.70261504  0.80531423    -0.01200
Br2912     Br  0.70293083  0.69503299  0.85579084    -0.01200
Br2913     Br  0.77244306  0.85408082  0.81250587    -0.01200
Br2914     Br  0.76628579  0.84658525  0.86314335    -0.01200
C2915       C  0.78898100  0.49743620  0.84490125    -0.02300
C2916       C  0.75691696  0.47693507  0.85557363     0.07400
C2917       C  0.72193550  0.96054172  0.84426921    -0.02400
C2918       C  0.72268603  0.96331189  0.82278637    -0.02400
C2919       C  0.75722307  0.48146832  0.81239287     0.07500
C2920       C  0.78928492  0.49876925  0.82335979    -0.02600
Br2921     Br  0.83357704  0.52540669  0.80892197    -0.01200
Br2922     Br  0.83219694  0.52583458  0.85973620    -0.01200
Br2923     Br  0.67928123  0.93825981  0.80740371    -0.01200
Br2924     Br  0.67815637  0.92922658  0.85798278    -0.01200
C2925       C  0.91458956  0.60535785  0.91044667    -0.11900
C2926       C  0.91525336  0.63699951  0.91602919     0.07400
C2927       C  0.88375245  0.63496751  0.92358271    -0.02400
C2928       C  0.85176536  0.60251545  0.92407411    -0.02400
C2929       C  0.85052228  0.57120355  0.91719337     0.07500
C2930       C  0.88255248  0.57272484  0.91110894    -0.02600
Br2931     Br  0.88352750  0.53051616  0.90336025    -0.01200
Br2932     Br  0.95717121  0.60577478  0.90154048    -0.01200
Br2933     Br  0.81035901  0.60139855  0.93593197    -0.01200
Br2934     Br  0.88417789  0.67600303  0.93513684    -0.01200
C2935       C  0.62151076  0.83227302  0.93033492    -0.02300
C2936       C  0.59172813  0.82938556  0.91989480     0.07400
C2937       C  0.59357077  0.86038611  0.91197298    -0.02400
C2938       C  0.62598871  0.89257939  0.91202616    -0.02400
C2939       C  0.65684949  0.89446499  0.92048658     0.07500
C2940       C  0.65380631  0.86447875  0.93057946    -0.02600
Br2941     Br  0.69292807  0.86769570  0.94631612    -0.01200
Br2942     Br  0.61744776  0.79316346  0.94630277    -0.01200
Br2943     Br  0.62728703  0.93355740  0.89991341    -0.01200
Br2944     Br  0.55200464  0.85994849  0.90122746    -0.01200
C2945       C  0.99934838  0.70296134  0.84236990    -0.02300
C2946       C  0.51137345  0.73459672  0.85371670     0.07400
C2947       C  0.52486208  0.76695952  0.84321782    -0.02400
C2948       C  0.52429205  0.76778368  0.82173391    -0.02400
C2949       C  0.51144283  0.73632379  0.81046105     0.07500
C2950       C  0.99990835  0.70390995  0.82080853    -0.02600
Br2951     Br  0.98279695  0.66067089  0.80548062    -0.01200
Br2952     Br  0.97968828  0.65818634  0.85608244    -0.01200
Br2953     Br  0.54233297  0.81244066  0.80774052    -0.01200
Br2954     Br  0.54625229  0.81070095  0.85806038    -0.01200
C2955       C  0.85666048  0.86161477  0.90166997    -0.02300
C2956       C  0.83021493  0.85677632  0.91603814     0.07400
C2957       C  0.83636782  0.88506319  0.92910190    -0.02400
C2958       C  0.86890799  0.91713702  0.92832839    -0.02400
C2959       C  0.89549436  0.92177705  0.91412800     0.07500
C2960       C  0.88882260  0.89400626  0.90056329    -0.02600
Br2961     Br  0.92267432  0.90100928  0.87933358    -0.01200
Br2962     Br  0.84843401  0.82469145  0.88246725    -0.01200
Br2963     Br  0.87740253  0.95390969  0.94772438    -0.01200
Br2964     Br  0.80097763  0.87980314  0.94888388    -0.01200
C2965       C  0.60784810  0.61096383  0.92918949    -0.02300
C2966       C  0.58084243  0.60566414  0.91530172     0.07400
C2967       C  0.58640249  0.63312597  0.90176938    -0.02400
C2968       C  0.61811506  0.66591248  0.90258187    -0.02400
C2969       C  0.64520825  0.67120753  0.91643158     0.07500
C2970       C  0.63989634  0.64350020  0.92969940    -0.02600
Br2971     Br  0.67563017  0.65071397  0.94957842    -0.01200
Br2972     Br  0.60043675  0.57420357  0.94824734    -0.01200
Br2973     Br  0.62469129  0.70312526  0.88410718    -0.01200
Br2974     Br  0.55166645  0.62510010  0.88098951    -0.01200
C2975       C  0.96391403  0.52133924  0.81952725    -0.02300
C2976       C  0.49708415  0.53381119  0.80999549     0.07400
C2977       C  0.52979837  0.04486193  0.82245351    -0.02400
C2978       C  0.52680150  0.03983512  0.84379623    -0.02400
C2979       C  0.49066264  0.52484247  0.85298485     0.07500
C2980       C  0.96075830  0.51697307  0.84096372    -0.02600
Br2981     Br  0.91471805  0.49757648  0.85367785    -0.01200
Br2982     Br  0.92203643  0.50775135  0.80328097    -0.01200
Br2983     Br  0.56906879  0.05434160  0.85985878    -0.01200
Br2984     Br  0.57610328  0.06773105  0.80976973    -0.01200
C2985       C  0.77448650  0.76792602  0.98842313    -0.02300
C2986       C  0.74192213  0.75764620  0.97872019     0.07400
C2987       C  0.71087698  0.74425657  0.99058377    -0.02400
C2988       C  0.71232697  0.74212775  0.01210773    -0.02400
C2989       C  0.74519481  0.75243723  0.02220824     0.07500
C2990       C  0.77619941  0.76472366  0.00984240    -0.02600
Br2991     Br  0.82182223  0.77652590  0.02123427    -0.01200
Br2992     Br  0.81751355  0.78817965  0.97227452    -0.01200
Br2993     Br  0.66805344  0.72505027  0.02680786    -0.01200
Br2994     Br  0.66564119  0.72686639  0.97705394    -0.01200
C2995       C  0.77723880  0.87222675  0.09869744    -0.02300
C2996       C  0.75493519  0.84521219  0.08495567     0.07400
C2997       C  0.73553278  0.85233554  0.07028678    -0.02400
C2998       C  0.73786089  0.88565446  0.06961274    -0.02400
C2999       C  0.75877284  0.91200883  0.08395384     0.07500
C3000       C  0.77891114  0.90533962  0.09829919    -0.02600
Br3001     Br  0.80768593  0.94102603  0.11804735    -0.01200
Br3002     Br  0.80448882  0.86361822  0.11878988    -0.01200
Br3003     Br  0.71432605  0.89609339  0.04796726    -0.01200
Br3004     Br  0.70709967  0.81720236  0.05021376    -0.01200
C3005       C  0.76748588  0.64998086  0.06837188    -0.02300
C3006       C  0.74699718  0.65603358  0.08293067     0.07400
C3007       C  0.72659027  0.62921474  0.09724950    -0.02400
C3008       C  0.72717253  0.59717483  0.09720477    -0.02400
C3009       C  0.74829552  0.59153718  0.08293545     0.07500
C3010       C  0.76820776  0.61804664  0.06843175    -0.02600
Br3011     Br  0.79513820  0.60988910  0.04781040    -0.01200
Br3012     Br  0.79319791  0.68456563  0.04741670    -0.01200
Br3013     Br  0.70035028  0.56172921  0.11755050    -0.01200
Br3014     Br  0.69926977  0.63687364  0.11784646    -0.01200
C3015       C  0.72584950  0.99594700  0.01059121    -0.02300
C3016       C  0.75249975  0.49353279  0.02212761     0.07400
C3017       C  0.78225147  0.49454786  0.01237586    -0.02400
C3018       C  0.78332679  0.49183293  0.99087823    -0.02400
C3019       C  0.75402895  0.48597843  0.97886385     0.07500
C3020       C  0.72484098  0.99158050  0.98917180    -0.02600
Br3021     Br  0.68323892  0.98391507  0.97429761    -0.01200
Br3022     Br  0.68877377  0.00111317  0.02360320    -0.01200
Br3023     Br  0.82585667  0.49770759  0.97785560    -0.01200
Br3024     Br  0.82125754  0.49736004  0.02805134    -0.01200
C3025       C  0.47885550  0.75114832  0.00878685    -0.02300
C3026       C  0.99371783  0.73544543  0.02086137     0.07400
C3027       C  0.01093737  0.71923815  0.01139563    -0.02400
C3028       C  0.01297285  0.71830502  0.98987886    -0.02400
C3029       C  0.99747208  0.73373457  0.97736420     0.07500
C3030       C  0.48091073  0.75077445  0.98724429    -0.02600
Br3031     Br  0.46187815  0.77571775  0.97220732    -0.01200
Br3032     Br  0.45706569  0.77510479  0.02210641    -0.01200
Br3033     Br  0.03702751  0.69495407  0.97852955    -0.01200
Br3034     Br  0.03053424  0.69671996  0.02817736    -0.01200
C3035       C  0.96763112  0.86790765  0.09296203    -0.02300
C3036       C  0.49065162  0.89526555  0.07946450     0.07400
C3037       C  0.51405717  0.89007441  0.06682731    -0.02400
C3038       C  0.51462639  0.85807315  0.06762308    -0.02400
C3039       C  0.49124723  0.83050227  0.08074609     0.07500
C3040       C  0.96780243  0.83575296  0.09350656    -0.02600
Br3041     Br  0.93722007  0.79962737  0.11265442    -0.01200
Br3042     Br  0.93761177  0.87509683  0.11187186    -0.01200
Br3043     Br  0.54645176  0.85164903  0.04983065    -0.01200
Br3044     Br  0.54410634  0.92594333  0.04743720    -0.01200
C3045       C  0.96666347  0.58502398  0.06933303    -0.02300
C3046       C  0.48888786  0.57938635  0.08275594     0.07400
C3047       C  0.51129961  0.60657642  0.09628631    -0.02400
C3048       C  0.51206216  0.63919186  0.09618176    -0.02400
C3049       C  0.48948993  0.64463480  0.08302358     0.07500
C3050       C  0.96678605  0.61734328  0.06953498    -0.02600
Br3051     Br  0.93755248  0.62469827  0.05019438    -0.01200
Br3052     Br  0.93696430  0.54907174  0.04987632    -0.01200
Br3053     Br  0.54339337  0.67585088  0.11476839    -0.01200
Br3054     Br  0.53932775  0.59844475  0.11610300    -0.01200
C3055       C  0.97446849  0.96532857  0.00638253    -0.02300
C3056       C  0.48968836  0.49686105  0.01848586     0.07400
C3057       C  0.50475393  0.53088630  0.00978083    -0.02400
C3058       C  0.50282124  0.53494850  0.98849768    -0.02400
C3059       C  0.48714226  0.50508049  0.97567120     0.07500
C3060       C  0.97464211  0.96926935  0.98495685    -0.02600
Br3061     Br  0.95354978  0.92793559  0.96773081    -0.01200
Br3062     Br  0.95472797  0.91890597  0.01822359    -0.01200
Br3063     Br  0.52253620  0.58156841  0.97687630    -0.01200
Br3064     Br  0.52745149  0.57213679  0.02700449    -0.01200
C3065       C  0.72901587  0.74799420  0.49194199    -0.02300
C3066       C  0.76028286  0.76547612  0.48016756     0.07400
C3067       C  0.79309225  0.78626869  0.49003638    -0.02400
C3068       C  0.79465086  0.78931278  0.51153212    -0.02400
C3069       C  0.76341624  0.77171713  0.52333821     0.07500
C3070       C  0.73055231  0.75126824  0.51342245    -0.02600
Br3071     Br  0.68721392  0.72930262  0.52918255    -0.01200
Br3072     Br  0.68373914  0.72087728  0.47860868    -0.01200
Br3073     Br  0.83991608  0.81618885  0.52475711    -0.01200
Br3074     Br  0.83628820  0.80921618  0.47416730    -0.01200
C3075       C  0.71246142  0.96628450  0.51167688    -0.02300
C3076       C  0.74398153  0.49071874  0.52219161     0.07400
C3077       C  0.77596809  0.51051660  0.51125505    -0.02400
C3078       C  0.77658869  0.50775593  0.48977223    -0.02400
C3079       C  0.74521704  0.48533535  0.47892770     0.07500
C3080       C  0.71188011  0.96520541  0.49008649    -0.02600
Br3081     Br  0.66716262  0.93938260  0.47599475    -0.01200
Br3082     Br  0.66852812  0.94147169  0.52673508    -0.01200
Br3083     Br  0.82112206  0.53342219  0.47533882    -0.01200
Br3084     Br  0.81964720  0.54005611  0.52569922    -0.01200
C3085       C  0.53231825  0.80329429  0.51057828    -0.02300
C3086       C  0.50908937  0.77342075  0.52235393     0.07400
C3087       C  0.98542676  0.74247056  0.51198321    -0.02400
C3088       C  0.98818136  0.73935149  0.49073719    -0.02400
C3089       C  0.51024355  0.76887175  0.47863980     0.07500
C3090       C  0.53189835  0.80148350  0.48892583    -0.02600
Br3091     Br  0.56251943  0.84452221  0.47413528    -0.01200
Br3092     Br  0.56554638  0.84720685  0.52367732    -0.01200
Br3093     Br  0.96125544  0.69221266  0.47938615    -0.01200
Br3094     Br  0.94569991  0.70394916  0.52612045    -0.01200
C3095       C  0.90856267  0.78174009  0.40315146    -0.02300
C3096       C  0.91585474  0.76224648  0.41762190     0.07400
C3097       C  0.89008348  0.74213156  0.43256659    -0.02400
C3098       C  0.85712153  0.74084791  0.43273933    -0.02400
C3099       C  0.84965298  0.75977378  0.41804162     0.07500
C3100       C  0.87542570  0.78012680  0.40321745    -0.02600
Br3101     Br  0.86452582  0.80399311  0.38202436    -0.01200
Br3102     Br  0.94323114  0.80983336  0.38263906    -0.01200
Br3103     Br  0.82283823  0.71433882  0.45379531    -0.01200
Br3104     Br  0.90051096  0.71810706  0.45385115    -0.01200
C3105       C  0.60335156  0.73385932  0.40536439    -0.02300
C3106       C  0.59895227  0.75808160  0.41758234     0.07400
C3107       C  0.62654977  0.78092598  0.43081616    -0.02400
C3108       C  0.65857036  0.78031293  0.43137149    -0.02400
C3109       C  0.66339489  0.75700160  0.41863636     0.07500
C3110       C  0.63551552  0.73348567  0.40580534    -0.02600
Br3111     Br  0.64175639  0.70173498  0.38797630    -0.01200
Br3112     Br  0.56593449  0.70175363  0.38735183    -0.01200
Br3113     Br  0.69496859  0.80991920  0.45065458    -0.01200
Br3114     Br  0.61987015  0.81145935  0.44939361    -0.01200
C3115       C  0.49838265  0.95649290  0.51035523    -0.02300
C3116       C  0.48960510  0.48349407  0.52052933     0.07400
C3117       C  0.98028076  0.50461950  0.50838819    -0.02400
C3118       C  0.98107570  0.50317938  0.48685450    -0.02400
C3119       C  0.49164919  0.48100762  0.47703419     0.07500
C3120       C  0.49766278  0.95563215  0.48870162    -0.02600
Br3121     Br  0.51160768  0.92584636  0.47437249    -0.01200
Br3122     Br  0.51296487  0.92762648  0.52506152    -0.01200
Br3123     Br  0.96549825  0.53008721  0.47088533    -0.01200
Br3124     Br  0.96449435  0.53428331  0.52115373    -0.01200
C3125       C  0.89740175  0.50416993  0.40169599    -0.02300
C3126       C  0.90349876  0.48317283  0.41562639     0.07400
C3127       C  0.87197588  0.96081842  0.42942618    -0.02400
C3128       C  0.84076529  0.96296102  0.43022571    -0.02400
C3129       C  0.83904822  0.48413854  0.41689159     0.07500
C3130       C  0.86534821  0.50472939  0.40235007    -0.02600
Br3131     Br  0.85696488  0.53239880  0.38248261    -0.01200
Br3132     Br  0.93212314  0.53072350  0.38086423    -0.01200
Br3133     Br  0.80538568  0.93631990  0.45074694    -0.01200
Br3134     Br  0.87814870  0.93043376  0.44835561    -0.01200
C3135       C  0.62619500  0.96752760  0.40066022    -0.02300
C3136       C  0.65303321  0.48216635  0.41642332     0.07400
C3137       C  0.64757912  0.50460243  0.42958644    -0.02400
C3138       C  0.61546092  0.50499718  0.42901453    -0.02400
C3139       C  0.58809945  0.48233669  0.41558799     0.07500
C3140       C  0.59352494  0.96690108  0.40033534    -0.02600
Br3141     Br  0.56151864  0.94526872  0.37763370    -0.01200
Br3142     Br  0.63749695  0.94480503  0.37894310    -0.01200
Br3143     Br  0.60874051  0.53566125  0.44751057    -0.01200
Br3144     Br  0.68319421  0.53334241  0.44948425    -0.01200
C3145       C  0.73666225  0.76429055  0.17923297    -0.02300
C3146       C  0.75471846  0.74976224  0.18968952     0.07400
C3147       C  0.77250712  0.73576745  0.17838228    -0.02400
C3148       C  0.77185160  0.73586852  0.15679149    -0.02400
C3149       C  0.75358245  0.75019098  0.14630527     0.07500
C3150       C  0.73587433  0.76429403  0.15766310    -0.02600
Br3151     Br  0.71144304  0.78489867  0.14376315    -0.01200
Br3152     Br  0.71463466  0.78611621  0.19446692    -0.01200
Br3153     Br  0.79394807  0.71405378  0.14166055    -0.01200
Br3154     Br  0.79640157  0.71483969  0.19248793    -0.01200
C3155       C  0.74397240  0.71875326  0.32462786    -0.02300
C3156       C  0.75337522  0.74927085  0.31309270     0.07400
C3157       C  0.76256898  0.78106003  0.32317606    -0.02400
C3158       C  0.76041096  0.78199999  0.34466005    -0.02400
C3159       C  0.75341070  0.75199726  0.35659454     0.07500
C3160       C  0.74601069  0.72045505  0.34619127    -0.02600
Br3161     Br  0.74104336  0.67971094  0.36065494    -0.01200
Br3162     Br  0.72870428  0.67456302  0.31070702    -0.01200
Br3163     Br  0.76461362  0.82424566  0.35685181    -0.01200
Br3164     Br  0.77809076  0.82359675  0.30741277    -0.01200
C3165       C  0.77771474  0.90085815  0.23792440    -0.02300
C3166       C  0.75367393  0.90564967  0.25018654     0.07400
C3167       C  0.72951473  0.87763994  0.26277995    -0.02400
C3168       C  0.72951511  0.84536589  0.26317096    -0.02400
C3169       C  0.75400935  0.84075507  0.25115840     0.07500
C3170       C  0.77825616  0.86889023  0.23861868    -0.02600
Br3171     Br  0.81158797  0.86365085  0.22148430    -0.01200
Br3172     Br  0.80855637  0.93721702  0.21894855    -0.01200
Br3173     Br  0.69695265  0.80835354  0.28126133    -0.01200
Br3174     Br  0.69735434  0.88374870  0.28048798    -0.01200
C3175       C  0.77559455  0.61721813  0.26447241    -0.02300
C3176       C  0.75286534  0.58976949  0.25112180     0.07400
C3177       C  0.73127374  0.59570730  0.23742861    -0.02400
C3178       C  0.73141209  0.62806802  0.23761325    -0.02400
C3179       C  0.75401647  0.65546934  0.25103964     0.07500
C3180       C  0.77654525  0.64997357  0.26422839    -0.02600
Br3181     Br  0.80801808  0.68672429  0.28274162    -0.01200
Br3182     Br  0.80437322  0.60965508  0.28402021    -0.01200
Br3183     Br  0.70183529  0.63526127  0.21846343    -0.01200
Br3184     Br  0.70329047  0.56055628  0.21718905    -0.01200
C3185       C  0.77290009  0.53133917  0.17848285    -0.02300
C3186       C  0.75368559  0.49902927  0.18900091     0.07400
C3187       C  0.74030954  0.97053766  0.17787107    -0.02400
C3188       C  0.73906135  0.97117810  0.15635542    -0.02400
C3189       C  0.75187753  0.50080447  0.14572420     0.07500
C3190       C  0.77192551  0.53222970  0.15693263    -0.02600
Br3191     Br  0.79661426  0.57689528  0.14285204    -0.01200
Br3192     Br  0.79957347  0.57470338  0.19357943    -0.01200
Br3193     Br  0.71303395  0.92741724  0.14149991    -0.01200
Br3194     Br  0.71693016  0.92590615  0.19209021    -0.01200
C3195       C  0.76390046  0.97499143  0.34444678    -0.02300
C3196       C  0.74496878  0.48377189  0.35543338     0.07400
C3197       C  0.72810380  0.50006670  0.34551216    -0.02400
C3198       C  0.72860097  0.50247705  0.32400331    -0.02400
C3199       C  0.74674275  0.48939728  0.31225216     0.07500
C3200       C  0.76633564  0.97750864  0.32294066    -0.02600
Br3201     Br  0.78902878  0.95592107  0.30815465    -0.01200
Br3202     Br  0.78500301  0.95163146  0.35892662    -0.01200
Br3203     Br  0.70537914  0.52486069  0.31072458    -0.01200
Br3204     Br  0.70357350  0.51854702  0.36139537    -0.01200
C3205       C  0.96539566  0.70689296  0.15515251    -0.02300
C3206       C  0.48842885  0.73817364  0.14415438     0.07400
C3207       C  0.51047914  0.76945168  0.15506231    -0.02400
C3208       C  0.51105736  0.76930647  0.17663662    -0.02400
C3209       C  0.48976398  0.73777214  0.18760241     0.07500
C3210       C  0.96620565  0.70660730  0.17674034    -0.02600
Br3211     Br  0.93700849  0.66291967  0.19115458    -0.01200
Br3212     Br  0.93479526  0.66372802  0.14066669    -0.01200
Br3213     Br  0.53973803  0.81312422  0.19103604    -0.01200
Br3214     Br  0.53877043  0.81321627  0.14050810    -0.01200
C3215       C  0.53164502  0.75558205  0.32221076    -0.02300
C3216       C  0.49886425  0.74315005  0.31166759     0.07400
C3217       C  0.96796435  0.73407491  0.32362435    -0.02400
C3218       C  0.97005215  0.73729483  0.34515047    -0.02400
C3219       C  0.50271314  0.75095014  0.35508868     0.07500
C3220       C  0.53355435  0.76069738  0.34360927    -0.02600
Br3221     Br  0.57863551  0.78046124  0.35750468    -0.01200
Br3222     Br  0.57451906  0.76415678  0.30831913    -0.01200
Br3223     Br  0.92770275  0.72320280  0.36120558    -0.01200
Br3224     Br  0.92210502  0.71849510  0.31129940    -0.01200
C3225       C  0.50440095  0.85255602  0.26557272    -0.02300
C3226       C  0.98931703  0.82807979  0.24966427     0.07400
C3227       C  0.97118230  0.83473780  0.23397116    -0.02400
C3228       C  0.97034804  0.86659864  0.23370267    -0.02400
C3229       C  0.98779700  0.89215589  0.24907541     0.07500
C3230       C  0.50339873  0.88429388  0.26529924    -0.02600
Br3231     Br  0.52225664  0.91650386  0.28808583    -0.01200
Br3232     Br  0.52560258  0.84203682  0.28841950    -0.01200
Br3233     Br  0.94638237  0.87574623  0.21180419    -0.01200
Br3234     Br  0.94897344  0.80094631  0.21220138    -0.01200
C3235       C  0.51445000  0.63994697  0.23239453    -0.02300
C3236       C  0.99790867  0.64738950  0.24881420     0.07400
C3237       C  0.98155289  0.62231603  0.26458481    -0.02400
C3238       C  0.98103561  0.58977642  0.26387220    -0.02400
C3239       C  0.99766321  0.58220331  0.24763532     0.07500
C3240       C  0.51434248  0.60755732  0.23186258    -0.02600
Br3241     Br  0.53540534  0.59687076  0.20896447    -0.01200
Br3242     Br  0.53475464  0.67270029  0.20995186    -0.01200
Br3243     Br  0.95874436  0.55610764  0.28572899    -0.01200
Br3244     Br  0.96145922  0.63337589  0.28783785    -0.01200
C3245       C  0.50924973  0.97223856  0.15318742    -0.02300
C3246       C  0.49223298  0.48536621  0.14163095     0.07400
C3247       C  0.97396787  0.49918544  0.15272281    -0.02400
C3248       C  0.97472113  0.49973211  0.17430071    -0.02400
C3249       C  0.49419802  0.48711081  0.18507903     0.07500
C3250       C  0.51016011  0.97309270  0.17478620    -0.02600
Br3251     Br  0.53688168  0.95548725  0.18914243    -0.01200
Br3252     Br  0.53359861  0.95235380  0.13840184    -0.01200
Br3253     Br  0.95049174  0.51979475  0.18901863    -0.01200
Br3254     Br  0.94953754  0.51931333  0.13834164    -0.01200
C3255       C  0.52821312  0.50740328  0.34235674    -0.02300
C3256       C  0.49673417  0.48549563  0.35319567     0.07400
C3257       C  0.96191859  0.96337210  0.34277569    -0.02400
C3258       C  0.96213610  0.96273516  0.32117907    -0.02400
C3259       C  0.49661704  0.48789307  0.30943322     0.07500
C3260       C  0.52805282  0.50964398  0.32077549    -0.02600
Br3261     Br  0.57147910  0.54412072  0.30758845    -0.01200
Br3262     Br  0.57235149  0.53327608  0.35711817    -0.01200
Br3263     Br  0.91993628  0.92697885  0.30760993    -0.01200
Br3264     Br  0.91789824  0.93479575  0.35732212    -0.01200
loop_ 
_geom_bond_atom_site_label_1 
_geom_bond_atom_site_label_2 
_geom_bond_distance 
_geom_bond_site_symmetry_2 
_ccdc_geom_bond_type 
O1            V9   1.905       .  S
O1         C2459   1.265       .  A
O2            V9   1.905       .  S
O2         C2460   1.266       .  A
O3            V9   1.913       .  S
O3           C13   1.267       .  A
O4          V825   1.907   1_545  S
O4           C14   1.265       .  A
O5           V10   1.911   1_545  S
O5         C1646   1.267   1_455  A
O6          V826   1.906       .  S
O6         C1645   1.265   1_455  A
O7           V10   1.908       .  S
O7           C12   1.266   1_455  A
O8           V10   1.906       .  S
O8           C11   1.265   1_455  A
V9          O820   1.911       .  S
V9         V2458   2.083       .  T
V10         O822   1.905       .  S
V10        V2457   2.083   1_455  T
C11        O2449   1.266       .  A
C11         C811   1.509       .  S
C12        O2450   1.266       .  A
C12         C801   1.489       .  S
C13        O1638   1.265       .  A
C13         C781   1.490       .  S
C14        O1637   1.267       .  A
C14         C791   1.491       .  S
O15          V23   1.905       .  S
O15        C1657   1.265       .  A
O16          V23   1.904       .  S
O16        C1658   1.263       .  A
O17          V23   1.909       .  S
O17        C1659   1.266       .  A
O18          V23   1.910       .  S
O18        C1660   1.266       .  A
O19          V24   1.912       .  S
O19          C28   1.267   1_455  A
O20          V24   1.913       .  S
O20          C27   1.267   1_455  A
O21          V24   1.899       .  S
O21          C26   1.258   1_455  A
O22          V24   1.899       .  S
O22          C25   1.262       .  A
V23        V1656   2.074       .  T
V24        V1655   2.075   1_455  T
C25        O1647   1.267   1_455  A
C25         C768   1.509       .  S
C26        O1648   1.270       .  A
C26         C761   1.513       .  S
C27        O1649   1.266       .  A
C27        C2420   1.496       .  S
C28        O1650   1.265       .  A
C28        C2410   1.491       .  S
O29          V37   1.905       .  S
O29          C39   1.265       .  A
O30         V853   1.903       .  S
O30          C40   1.265       .  A
O31          V37   1.908       .  S
O31          C41   1.266       .  A
O32          V37   1.906       .  S
O32          C42   1.266   1_545  A
O33          V38   1.903       .  S
O33         C858   1.264       .  A
O34          V38   1.901       .  S
O34         C857   1.264       .  A
O35          V38   1.908       .  S
O35          C40   1.266       .  A
O36         V854   1.906   1_545  S
O36          C39   1.266       .  A
V37         O846   1.903   1_545  S
V37         V854   2.086   1_545  T
V38         O852   1.910       .  S
V38         V853   2.086       .  T
C39         C728   1.489       .  S
C40         C718   1.490       .  S
C41         O850   1.264   1_545  A
C41         C738   1.482       .  S
C42         O849   1.264       .  A
C42         C751   1.481       .  S
O43          V51   1.906       .  S
O43          C53   1.266       .  A
O44          V51   1.904       .  S
O44          C54   1.266       .  A
O45          V51   1.904       .  S
O45          C55   1.265       .  A
O46          V51   1.903       .  S
O46          C56   1.265       .  A
O47          V52   1.907       .  S
O47          C56   1.266       .  A
O48          V52   1.905       .  S
O48          C55   1.265       .  A
O49          V52   1.908       .  S
O49          C54   1.266       .  A
O50          V52   1.905       .  S
O50          C53   1.266       .  A
V51          V52   2.086       .  T
C53         C721   1.492       .  S
C54         C731   1.489       .  S
C55         C708   1.481       .  S
C56         C698   1.487       .  S
O57          V65   1.898       .  S
O57          C67   1.263   1_545  A
O58        V1697   1.897       .  S
O58          C68   1.263   1_545  A
O59          V65   1.907       .  S
O59          C69   1.267   1_445  A
O60          V65   1.909       .  S
O60          C70   1.266   1_445  A
O61          V66   1.910       .  S
O61        C2518   1.267       .  A
O62          V66   1.911       .  S
O62        C2517   1.266       .  A
O63          V66   1.900       .  S
O63         C884   1.264       .  A
O64        V1698   1.901   1_455  S
O64         C883   1.265       .  A
V65        O1690   1.897   1_455  S
V65        V2514   2.086   1_445  T
V66        O1696   1.901       .  S
V66        V2513   2.085       .  T
C67         O880   1.266       .  A
C67         C691   1.479       .  S
C68         O879   1.266       .  A
C68         C678   1.482       .  S
C69        O2510   1.266       .  A
C69         C671   1.494       .  S
C70        O2509   1.266       .  A
C70         C808   1.492       .  S
O71        V1711   1.899   1_455  S
O71          C81   1.263       .  A
O72          V79   1.902       .  S
O72          C82   1.264       .  A
O73          V79   1.904       .  S
O73        C1715   1.266       .  A
O74          V79   1.902       .  S
O74        C1716   1.265       .  A
O75          V80   1.896       .  S
O75          C84   1.262       .  A
O76          V80   1.898       .  S
O76          C83   1.264       .  A
O77        V1712   1.902       .  S
O77          C82   1.265       .  A
O78          V80   1.906       .  S
O78          C81   1.266       .  A
V79        O1703   1.899       .  S
V79        V1712   2.083       .  T
V80        O1709   1.902   1_455  S
V80        V1711   2.083   1_455  T
C81         C658   1.484       .  S
C82         C648   1.484       .  S
C83        O1705   1.265   1_455  A
C83         C771   1.482       .  S
C84        O1706   1.265   1_455  A
C84         C641   1.504       .  S
O85          V93   1.912       .  S
O85         C911   1.267       .  A
O86          V93   1.911       .  S
O86         C912   1.267       .  A
O87          V93   1.899       .  S
O87         C913   1.264       .  A
O88          V93   1.898       .  S
O88         C914   1.264       .  A
O89          V94   1.907       .  S
O89          C98   1.266   1_545  A
O90          V94   1.908       .  S
O90          C97   1.266   1_545  A
O91          V94   1.900       .  S
O91          C96   1.264   1_545  A
O92          V94   1.900       .  S
O92          C95   1.264   1_545  A
V93         V910   2.087       .  T
V94         V909   2.087   1_545  T
C95         O901   1.267       .  A
C95         C631   1.487       .  S
C96         O902   1.266       .  A
C96         C748   1.483       .  S
C97         O903   1.263       .  A
C97         C681   1.483       .  S
C98         O904   1.263       .  A
C98         C688   1.481       .  S
O99         V107   1.899       .  S
O99         C109   1.264       .  A
O100        V107   1.898       .  S
O100        C110   1.263       .  A
O101        V107   1.903       .  S
O101        C111   1.265       .  A
O102        V107   1.900       .  S
O102        C112   1.264       .  A
O103        V108   1.899       .  S
O103        C112   1.264       .  A
O104        V108   1.898       .  S
O104        C111   1.263       .  A
O105        V108   1.906       .  S
O105        C110   1.266       .  A
O106        V108   1.907       .  S
O106        C109   1.266       .  A
V107        V108   2.083       .  T
C109        C618   1.484       .  S
C110        C711   1.509       .  S
C111        C661   1.481       .  S
C112        C651   1.477       .  S
O113        V121   1.904       .  S
O113       C2571   1.265       .  A
O114        V121   1.905       .  S
O114       C2572   1.266       .  A
O115        V937   1.904   1_545  S
O115       C1757   1.265       .  A
O116        V121   1.904       .  S
O116       C1758   1.266       .  A
O117        V938   1.911       .  S
O117        C126   1.267   1_455  A
O118        V122   1.905       .  S
O118        C125   1.266   1_455  A
O119        V122   1.905   1_565  S
O119        C124   1.265   1_455  A
O120        V122   1.906       .  S
O120        C123   1.265   1_445  A
V121        O931   1.903       .  S
V121       V2570   2.086       .  T
V122        O933   1.909   1_545  S
V122       V2569   2.085   1_445  T
C123       O2561   1.266       .  A
C123        C608   1.484       .  S
C124       O2562   1.266       .  A
C124        C798   1.486       .  S
C125       O1747   1.265       .  A
C125        C598   1.492       .  S
C126       O1748   1.266       .  A
C126        C588   1.494       .  S
O127        V135   1.902       .  S
O127       C1769   1.265       .  A
O128        V135   1.908       .  S
O128       C1770   1.267       .  A
O129        V135   1.902       .  S
O129        C139   1.265       .  A
O130        V135   1.902       .  S
O130        C140   1.267       .  A
O131        V136   1.899       .  S
O131       C1772   1.269   1_455  A
O132        V136   1.898       .  S
O132       C1771   1.264   1_455  A
O133        V136   1.909       .  S
O133        C138   1.266   1_455  A
O134        V136   1.908       .  S
O134        C137   1.266   1_455  A
V135       V1768   2.082       .  T
V136       V1767   2.081   1_455  T
C137       O1759   1.264       .  A
C137        C601   1.492       .  S
C138       O1760   1.266       .  A
C138        C591   1.495       .  S
C139       O1764   1.264       .  A
C139        C578   1.479       .  S
C140       O1763   1.261       .  A
C140       C2390   1.511       .  S
O141        V149   1.908       .  S
O141        C967   1.267       .  A
O142        V149   1.907       .  S
O142        C968   1.266       .  A
O143        V965   1.907   1_545  S
O143        C153   1.266       .  A
O144        V149   1.897       .  S
O144        C154   1.263       .  A
O145        V966   1.914       .  S
O145        C154   1.268       .  A
O146        V150   1.910       .  S
O146        C153   1.267       .  A
O147        V150   1.901       .  S
O147        C152   1.264       .  A
O148        V150   1.902       .  S
O148        C151   1.265       .  A
V149        O959   1.908       .  S
V149        V966   2.083       .  T
V150        O961   1.914   1_545  S
V150        V965   2.084   1_545  T
C151        O957   1.266   1_545  A
C151        C568   1.495   1_545  S
C152        O958   1.266   1_545  A
C152        C741   1.483       .  S
C153        C561   1.493       .  S
C154        C551   1.488       .  S
O155        V163   1.909       .  S
O155        C165   1.266       .  A
O156        V163   1.908       .  S
O156        C166   1.266       .  A
O157        V163   1.903       .  S
O157        C167   1.265       .  A
O158        V163   1.899       .  S
O158        C168   1.263       .  A
O159        V164   1.913       .  S
O159        C168   1.268       .  A
O160        V164   1.913       .  S
O160        C167   1.267       .  A
O161        V164   1.904       .  S
O161        C166   1.265       .  A
O162        V164   1.907       .  S
O162        C165   1.265       .  A
V163        V164   2.081       .  T
C165        C541   1.518       .  S
C166        C701   1.490       .  S
C167        C558   1.494       .  S
C168        C548   1.491       .  S
O169       V1809   1.900   1_455  S
O169        C179   1.264       .  A
O170        V993   1.903       .  S
O170        C180   1.264       .  A
O171        V177   1.910       .  S
O171       C1813   1.267       .  A
O172        V177   1.908       .  S
O172       C1814   1.266       .  A
O173        V178   1.897       .  S
O173        C998   1.264   1_455  A
O174        V178   1.897       .  S
O174        C997   1.263   1_455  A
O175       V1810   1.906       .  S
O175        C180   1.266       .  A
O176        V994   1.910   1_545  S
O176        C179   1.267       .  A
V177       O1801   1.899       .  S
V177        O986   1.902   1_545  S
V177       V2626   2.086   1_545  T
V178       O1807   1.906   1_455  S
V178        O992   1.909       .  S
V178       V2625   2.086   1_455  T
C179        C518   1.488       .  S
C180        C511   1.489       .  S
C181       O1803   1.267       .  A
C181        O990   1.264   1_645  A
C181        C611   1.485       .  S
C182       O1804   1.266       .  A
C182        O989   1.264   1_655  A
C182        C531   1.484       .  S
O183        V191   1.900       .  S
O183        C193   1.263       .  A
O184        V191   1.900       .  S
O184        C194   1.265       .  A
O185        V191   1.900       .  S
O185        C195   1.265       .  A
O186       V1823   1.906   1_455  S
O186        C196   1.266       .  A
O187        V192   1.901       .  S
O187        C196   1.266       .  A
O188       V1824   1.905       .  S
O188        C195   1.265       .  A
O189        V192   1.907       .  S
O189       C1826   1.266       .  A
O190        V192   1.902       .  S
O190       C1825   1.265   1_455  A
V191       O1818   1.905       .  S
V191       V1824   2.070       .  T
V192       O1820   1.905   1_455  S
V192       V1823   2.069   1_455  T
C193       O1822   1.265       .  A
C193        C581   1.507       .  S
C194       O1821   1.266       .  A
C194       C2130   1.482       .  S
C195        C478   1.498       .  S
C196        C488   1.498       .  S
O197        V205   1.906       .  S
O197        C207   1.267       .  A
O198       V1021   1.906   1_545  S
O198        C208   1.265       .  A
O199        V205   1.911       .  S
O199       C1025   1.267       .  A
O200        V205   1.913       .  S
O200       C1026   1.267       .  A
O201        V206   1.903       .  S
O201        C210   1.265       .  A
O202        V206   1.902   1_545  S
O202        C209   1.265   1_545  A
O203        V206   1.898   1_545  S
O203        C208   1.265       .  A
O204       V1022   1.899       .  S
O204        C207   1.264       .  A
V205       O1014   1.907       .  S
V205       V1022   2.075       .  T
V206       O1020   1.901       .  S
V206       V1021   2.074       .  T
C207        C491   1.497       .  S
C208        C481   1.501       .  S
C209       O1015   1.266       .  A
C209        C571   1.490       .  S
C210       O1016   1.266       .  A
C210        C468   1.482       .  S
O211        V219   1.907       .  S
O211        C221   1.266       .  A
O212        V219   1.909       .  S
O212        C222   1.267       .  A
O213        V219   1.907       .  S
O213        C223   1.266       .  A
O214        V219   1.906       .  S
O214        C224   1.265       .  A
O215        V220   1.903       .  S
O215        C224   1.265       .  A
O216        V220   1.906       .  S
O216        C223   1.266       .  A
O217        V220   1.901       .  S
O217        C222   1.264       .  A
O218        V220   1.901       .  S
O218        C221   1.264       .  A
V219        V220   2.086       .  T
C221        C508   1.489       .  S
C222        C521   1.488       .  S
C223        C538   1.491       .  S
C224        C458   1.484       .  S
O225        V233   1.916       .  S
O225       C2683   1.268       .  A
O226        V233   1.911       .  S
O226       C2684   1.267       .  A
O227        V233   1.900       .  S
O227       C1053   1.263       .  A
O228       V1865   1.904   1_455  S
O228       C1054   1.265       .  A
O229        V234   1.901       .  S
O229        C238   1.264   1_545  A
O230       V1866   1.904       .  S
O230        C237   1.265   1_545  A
O231        V234   1.896       .  S
O231        C236   1.262       .  A
O232        V234   1.898       .  S
O232        C235   1.264   1_445  A
V233       O1860   1.903       .  S
V233       V2682   2.082       .  T
V234       O1862   1.904   1_455  S
V234       V2681   2.082   1_445  T
C235       O2673   1.269       .  A
C235        C668   1.495       .  S
C236       O2674   1.268   1_445  A
C236        C448   1.516       .  S
C237       O1043   1.264       .  A
C237        C428   1.482       .  S
C238       O1044   1.265       .  A
C238        C438   1.484       .  S
O239        V247   1.901       .  S
O239        C249   1.264       .  A
O240       V1879   1.895   1_455  S
O240        C250   1.264       .  A
O241        V247   1.896       .  S
O241       C1883   1.263       .  A
O242        V247   1.884       .  S
O242       C1884   1.260       .  A
O243        V248   1.910       .  S
O243        C252   1.267       .  A
O244        V248   1.904       .  S
O244        C251   1.264       .  A
O245        V248   1.896       .  S
O245        C250   1.264       .  A
O246       V1880   1.891       .  S
O246        C249   1.263       .  A
V247       O1872   1.895       .  S
V247       V1880   2.079       .  T
V248       O1878   1.891   1_455  S
V248       V1879   2.079   1_455  T
C249        C398   1.487       .  S
C250        C408   1.490       .  S
C251       O1873   1.263   1_455  A
C251        C418   1.470       .  S
C252       O1874   1.260   1_455  A
C252        C638   1.497       .  S
O253        V261   1.908       .  S
O253        C263   1.267   1_545  A
O254        V261   1.910       .  S
O254        C264   1.267   1_545  A
O255        V261   1.898       .  S
O255        C265   1.264   1_545  A
O256        V261   1.903       .  S
O256        C266   1.264   1_545  A
O257        V262   1.901       .  S
O257       C1082   1.264       .  A
O258        V262   1.904       .  S
O258       C1081   1.265       .  A
O259        V262   1.896       .  S
O259       C1080   1.264       .  A
O260        V262   1.899       .  S
O260       C1079   1.264       .  A
V261       V1078   2.086   1_545  T
V262       V1077   2.086       .  T
C263       O1076   1.264       .  A
C263        C628   1.486       .  S
C264       O1075   1.264       .  A
C264        C391   1.493       .  S
C265       O1074   1.266       .  A
C265        C431   1.483       .  S
C266       O1073   1.265       .  A
C266        C441   1.479       .  S
O267        V275   1.905       .  S
O267        C277   1.265       .  A
O268        V275   1.900       .  S
O268        C278   1.262       .  A
O269        V275   1.903       .  S
O269        C279   1.265       .  A
O270        V275   1.902       .  S
O270        C280   1.266       .  A
O271        V276   1.886       .  S
O271        C280   1.260       .  A
O272        V276   1.888       .  S
O272        C279   1.262       .  A
O273        V276   1.910       .  S
O273        C278   1.266       .  A
O274        V276   1.902       .  S
O274        C277   1.264       .  A
V275        V276   2.083       .  T
C277        C621   1.484       .  S
C278        C378   1.478       .  S
C279        C401   1.495       .  S
C280        C411   1.489       .  S
O281       V1921   1.910       .  S
O281        C291   1.267       .  A
O282       V1105   1.914       .  S
O282        C292   1.268       .  A
O283        V289   1.894       .  S
O283       C1109   1.263       .  A
O284        V289   1.898       .  S
O284       C1110   1.264       .  A
O285        V290   1.910       .  S
O285       C1926   1.267       .  A
O286        V290   1.911       .  S
O286       C1925   1.267       .  A
O287       V1922   1.904   1_455  S
O287        C292   1.265       .  A
O288       V1106   1.900       .  S
O288        C291   1.264       .  A
V289       O1913   1.910   1_455  S
V289       O1098   1.912       .  S
V289       V2738   2.086   1_455  T
V290       O1919   1.904       .  S
V290       O1104   1.899       .  S
V290       V2737   2.086       .  T
C291        C358   1.484       .  S
C292        C371   1.494       .  S
C293       O1099   1.263       .  A
C293       O1918   1.267   1_455  A
C293        C528   1.483   1_455  S
C294       O1100   1.264       .  A
C294       O1917   1.267   1_455  A
C294        C451   1.489       .  S
O295        V303   1.896       .  S
O295        C305   1.263       .  A
O296        V303   1.900       .  S
O296        C306   1.263       .  A
O297       V1935   1.908       .  S
O297        C307   1.266       .  A
O298        V303   1.908       .  S
O298        C308   1.267       .  A
O299       V1936   1.903   1_455  S
O299        C308   1.265       .  A
O300        V304   1.907       .  S
O300        C307   1.266       .  A
O301        V304   1.895       .  S
O301       C1938   1.264       .  A
O302        V304   1.897       .  S
O302       C1937   1.264       .  A
V303       O1929   1.908   1_455  S
V303       V1936   2.086   1_455  T
V304       O1931   1.903       .  S
V304       V1935   2.086       .  T
C305       O1934   1.264   1_455  A
C305        C421   1.481       .  S
C306       O1933   1.264   1_455  A
C306        C501   1.474       .  S
C307        C338   1.489       .  S
C308        C348   1.489       .  S
O309        V317   1.904       .  S
O309       C1135   1.264       .  A
O310        V317   1.899       .  S
O310       C1136   1.265       .  A
O311       V1133   1.904   1_545  S
O311        C321   1.265       .  A
O312        V317   1.905       .  S
O312        C322   1.265       .  A
O313       V1134   1.905       .  S
O313        C322   1.266       .  A
O314        V318   1.912       .  S
O314        C321   1.267       .  A
O315        V318   1.907       .  S
O315        C320   1.266   1_545  A
O316        V318   1.904       .  S
O316        C319   1.265   1_545  A
V317       O1127   1.901       .  S
V317       V1134   2.085       .  T
V318       O1129   1.906   1_545  S
V318       V1133   2.085   1_545  T
C319       O1125   1.264       .  A
C319        C471   1.478       .  S
C320       O1126   1.264       .  A
C320        C388   1.496       .  S
C321        C341   1.488       .  S
C322        C351   1.489       .  S
O323        V331   1.905       .  S
O323        C333   1.265       .  A
O324        V331   1.901       .  S
O324        C334   1.264       .  A
O325        V331   1.912       .  S
O325        C335   1.268       .  A
O326        V331   1.911       .  S
O326        C336   1.267       .  A
O327        V332   1.901       .  S
O327        C336   1.264       .  A
O328        V332   1.902       .  S
O328        C335   1.264       .  A
O329        V332   1.904       .  S
O329        C334   1.266       .  A
O330        V332   1.902       .  S
O330        C333   1.265       .  A
V331        V332   2.086       .  T
C333        C461   1.484       .  S
C334        C381   1.486       .  S
C335        C368   1.495       .  S
C336        C361   1.485       .  S
C337        C338   1.414       .  A
C337        C342   1.413       .  A
C337       Br344   1.931       .  S
C338        C339   1.412       .  A
C339        C340   1.412       .  A
C339       Br346   1.931       .  S
C340        C341   1.413       .  A
C340       Br345   1.932       .  S
C341        C342   1.412       .  A
C342       Br343   1.930       .  S
C347        C348   1.413       .  A
C347        C352   1.411       .  A
C347       Br354   1.930       .  S
C348        C349   1.414       .  A
C349        C350   1.412       .  A
C349       Br356   1.933       .  S
C350        C351   1.414       .  A
C350       Br355   1.933       .  S
C351        C352   1.414       .  A
C352       Br353   1.933       .  S
C357        C358   1.412       .  A
C357        C362   1.411       .  A
C357       Br364   1.932       .  S
C358        C359   1.412       .  A
C359        C360   1.411       .  A
C359       Br366   1.931       .  S
C360        C361   1.411       .  A
C360       Br365   1.930       .  S
C361        C362   1.412       .  A
C362       Br363   1.931       .  S
C367        C368   1.414       .  A
C367        C372   1.413       .  A
C367       Br374   1.931       .  S
C368        C369   1.417       .  A
C369        C370   1.415       .  A
C369       Br376   1.933       .  S
C370        C371   1.414       .  A
C370       Br375   1.932       .  S
C371        C372   1.415       .  A
C372       Br373   1.934       .  S
C377        C378   1.408       .  A
C377        C382   1.410       .  A
C377       Br384   1.931       .  S
C378        C379   1.408       .  A
C379        C380   1.410       .  A
C379       Br386   1.927       .  S
C380        C381   1.415       .  A
C380       Br385   1.934       .  S
C381        C382   1.415       .  A
C382       Br383   1.931       .  S
C387        C392   1.415       .  A
C387       C1204   1.418       .  A
C387       Br394   1.934       .  S
C388        C389   1.418       .  A
C388       C1203   1.418   1_565  A
C389        C390   1.409       .  A
C389       Br396   1.938       .  S
C390        C391   1.415       .  A
C390       Br395   1.937       .  S
C391       C1208   1.415   1_565  A
C392       C1207   1.415       .  A
C392       Br393   1.933       .  S
C397        C398   1.414       .  A
C397        C402   1.407       .  A
C397       Br404   1.939       .  S
C398        C399   1.416       .  A
C399        C400   1.409       .  A
C399       Br406   1.940       .  S
C400        C401   1.419       .  A
C400       Br405   1.937       .  S
C401        C402   1.420       .  A
C402       Br403   1.940       .  S
C407        C408   1.417       .  A
C407        C412   1.408       .  A
C407       Br414   1.940       .  S
C408        C409   1.418       .  A
C409        C410   1.408       .  A
C409       Br416   1.936       .  S
C410        C411   1.415       .  A
C410       Br415   1.940       .  S
C411        C412   1.420       .  A
C412       Br413   1.941       .  S
C417        C422   1.406       .  A
C417       C2050   1.406       .  A
C417       Br424   1.926       .  S
C418        C419   1.405       .  A
C418       C2049   1.406   1_455  A
C419        C420   1.408       .  A
C419       Br426   1.930       .  S
C420        C421   1.418       .  A
C420       Br425   1.934       .  S
C421       C2054   1.414   1_455  A
C422       C2053   1.414       .  A
C422       Br423   1.933       .  S
C427        C432   1.410       .  A
C427       C1244   1.412       .  A
C427       Br434   1.931       .  S
C428        C429   1.411   1_565  A
C428       C1243   1.412       .  A
C429        C430   1.408       .  A
C429       Br436   1.931       .  S
C430        C431   1.413   1_545  A
C430       Br435   1.933       .  S
C431       C1248   1.413       .  A
C432       C1247   1.411       .  A
C432       Br433   1.932       .  S
C437        C438   1.413       .  A
C437        C442   1.410       .  A
C437       Br444   1.931       .  S
C438       C1255   1.413   1_565  A
C439        C440   1.409       .  A
C439       C1254   1.412       .  A
C439       Br446   1.932       .  S
C440       C1257   1.410       .  A
C440       Br445   1.931       .  S
C441        C442   1.410       .  A
C441       C1256   1.410   1_565  A
C442       Br443   1.933       .  S
C447        C452   1.413       .  A
C447       C2896   1.426       .  A
C447       Br454   1.938       .  S
C448        C449   1.432       .  A
C448       C2895   1.427   1_445  A
C449        C450   1.414       .  A
C449       Br456   1.939       .  S
C450        C451   1.406       .  A
C450       Br455   1.937       .  S
C451       C2900   1.411   1_445  A
C452       C2899   1.411       .  A
C452       Br453   1.938       .  S
C457        C458   1.410       .  A
C457        C462   1.409       .  A
C457       Br464   1.932       .  S
C458        C459   1.414       .  A
C459        C460   1.412       .  A
C459       Br466   1.932       .  S
C460        C461   1.412       .  A
C460       Br465   1.932       .  S
C461        C462   1.413       .  A
C462       Br463   1.932       .  S
C467        C468   1.411       .  A
C467        C472   1.409   1_565  A
C467       Br474   1.926   1_565  S
C468       C1285   1.410       .  A
C469        C470   1.410       .  A
C469       C1284   1.410       .  A
C469       Br476   1.926       .  S
C470       C1287   1.410       .  A
C470       Br475   1.930       .  S
C471        C472   1.409   1_565  A
C471       C1286   1.410       .  A
C472       Br473   1.930       .  S
C477        C478   1.419       .  A
C477        C482   1.414       .  A
C477       Br484   1.937       .  S
C478        C479   1.418       .  A
C479        C480   1.410       .  A
C479       Br486   1.941       .  S
C480        C481   1.420       .  A
C480       Br485   1.941       .  S
C481        C482   1.421       .  A
C482       Br483   1.939       .  S
C487        C488   1.418       .  A
C487        C492   1.411       .  A
C487       Br494   1.939       .  S
C488        C489   1.418       .  A
C489        C490   1.413       .  A
C489       Br496   1.937       .  S
C490        C491   1.420       .  A
C490       Br495   1.938       .  S
C491        C492   1.417       .  A
C492       Br493   1.938       .  S
C497        C502   1.410       .  A
C497       C2130   1.413       .  A
C497       Br504   1.927       .  S
C498       C1826   1.483       .  S
C498        C499   1.411       .  A
C498       C2129   1.413   1_455  A
C499        C500   1.405       .  A
C499       Br506   1.925       .  S
C500        C501   1.408       .  A
C500       Br505   1.934       .  S
C501       C2134   1.410   1_455  A
C502       C2133   1.410       .  A
C502       Br503   1.932       .  S
C507        C508   1.415       .  A
C507        C512   1.411       .  A
C507       Br514   1.934       .  S
C508        C509   1.413       .  A
C509        C510   1.412       .  A
C509       Br516   1.933       .  S
C510        C511   1.415       .  A
C510       Br515   1.933       .  S
C511        C512   1.412       .  A
C512       Br513   1.933       .  S
C517        C518   1.412       .  A
C517        C522   1.412       .  A
C517       Br524   1.932       .  S
C518        C519   1.415       .  A
C519        C520   1.411       .  A
C519       Br526   1.934       .  S
C520        C521   1.412       .  A
C520       Br525   1.933       .  S
C521        C522   1.414       .  A
C522       Br523   1.933       .  S
C527        C532   1.412       .  A
C527       C2160   1.413       .  A
C527       Br534   1.931       .  S
C528       C2159   1.413       .  A
C528       C1345   1.411   1_655  A
C529        C530   1.407       .  A
C529       C1344   1.410   1_455  A
C529       Br536   1.934       .  S
C530       C1347   1.414   1_455  A
C530       Br535   1.934       .  S
C531       C1346   1.413   1_655  A
C531       C2164   1.411       .  A
C532       C2163   1.411       .  A
C532       Br533   1.931   1_545  S
C537        C538   1.408       .  A
C537        C542   1.415   1_556  A
C537       Br544   1.936       .  S
C538        C539   1.408       .  A
C539        C540   1.416   1_556  A
C539       Br546   1.938       .  S
C540        C541   1.431       .  A
C540       Br545   1.938       .  S
C541        C542   1.429       .  A
C542       Br543   1.937       .  S
C547        C548   1.416       .  A
C547        C552   1.413       .  A
C547       Br554   1.933       .  S
C548        C549   1.413       .  A
C549        C550   1.411       .  A
C549       Br556   1.931       .  S
C550        C551   1.414       .  A
C550       Br555   1.934       .  S
C551        C552   1.412       .  A
C552       Br553   1.931       .  S
C557        C558   1.415       .  A
C557        C562   1.413       .  A
C557       Br564   1.932       .  S
C558        C559   1.415       .  A
C559        C560   1.414       .  A
C559       Br566   1.933       .  S
C560        C561   1.414       .  A
C560       Br565   1.932       .  S
C561        C562   1.413       .  A
C562       Br563   1.932       .  S
C567        C572   1.412   1_554  A
C567       C1384   1.420       .  A
C567       Br574   1.934       .  S
C568        C569   1.419       .  A
C568       C1383   1.417       .  A
C569        C570   1.411   1_554  A
C569       Br576   1.936       .  S
C570        C571   1.413       .  A
C570       Br575   1.935       .  S
C571       C1388   1.413       .  A
C572       C1387   1.411       .  A
C572       Br573   1.934       .  S
C577        C582   1.412   1_554  A
C577       C2210   1.405       .  A
C577       Br584   1.936       .  S
C578        C579   1.406       .  A
C578       C2209   1.405       .  A
C579        C580   1.410   1_554  A
C579       Br586   1.937       .  S
C580        C581   1.427       .  A
C580       Br585   1.939       .  S
C581       C2214   1.430       .  A
C582       C2213   1.429       .  A
C582       Br583   1.937       .  S
C587        C592   1.411       .  A
C587       C2220   1.414       .  A
C587       Br594   1.935       .  S
C588        C589   1.414   1_655  A
C588       C2219   1.414       .  A
C589        C590   1.416       .  A
C589       Br596   1.932       .  S
C590        C591   1.416   1_455  A
C590       Br595   1.933       .  S
C591       C2224   1.415       .  A
C592       C2223   1.414       .  A
C592       Br593   1.930       .  S
C597        C602   1.412       .  A
C597       C2230   1.415       .  A
C597       Br604   1.935       .  S
C598        C599   1.415   1_655  A
C598       C2229   1.415       .  A
C599        C600   1.412       .  A
C599       Br606   1.934       .  S
C600        C601   1.415   1_455  A
C600       Br605   1.933       .  S
C601       C2234   1.416       .  A
C602       C2233   1.416       .  A
C602       Br603   1.935       .  S
C607        C612   1.410   1_554  A
C607       C3056   1.410       .  A
C607       Br614   1.931       .  S
C608        C609   1.413   1_665  A
C608       C3055   1.410       .  A
C609        C610   1.412   1_554  A
C609       Br616   1.931       .  S
C610        C611   1.411   1_455  A
C610       Br615   1.932       .  S
C611       C3060   1.413   1_545  A
C612       C3059   1.413       .  A
C612       Br613   1.932       .  S
C617        C618   1.412       .  A
C617        C622   1.411       .  A
C617       Br624   1.931       .  S
C618        C619   1.413       .  A
C619        C620   1.409       .  A
C619       Br626   1.933       .  S
C620        C621   1.411       .  A
C620       Br625   1.928       .  S
C621        C622   1.413       .  A
C622       Br623   1.933       .  S
C627        C632   1.412       .  A
C627       C1444   1.414       .  A
C627       Br634   1.933       .  S
C628        C629   1.412   1_565  A
C628       C1443   1.414       .  A
C629        C630   1.410       .  A
C629       Br636   1.933       .  S
C630        C631   1.414   1_545  A
C630       Br635   1.933       .  S
C631       C1448   1.413       .  A
C632       C1447   1.413       .  A
C632       Br633   1.932       .  S
C637        C638   1.416       .  A
C637        C642   1.414       .  A
C637       Br644   1.938       .  S
C638       C2271   1.417   1_455  A
C639        C640   1.408       .  A
C639       C2270   1.417       .  A
C639       Br646   1.943       .  S
C640       C2273   1.422       .  A
C640       Br645   1.940       .  S
C641        C642   1.426       .  A
C641       C2272   1.422   1_455  A
C642       Br643   1.940       .  S
C647        C648   1.413       .  A
C647        C652   1.409       .  A
C647       Br654   1.932       .  S
C648        C649   1.414       .  A
C649        C650   1.407       .  A
C649       Br656   1.927       .  S
C650        C651   1.408       .  A
C650       Br655   1.934       .  S
C651        C652   1.411       .  A
C652       Br653   1.932       .  S
C657        C658   1.413       .  A
C657        C662   1.410       .  A
C657       Br664   1.933       .  S
C658        C659   1.412       .  A
C659        C660   1.409       .  A
C659       Br666   1.928       .  S
C660        C661   1.410       .  A
C660       Br665   1.933       .  S
C661        C662   1.413       .  A
C662       Br663   1.933       .  S
C667        C672   1.416   1_655  A
C667       C1484   1.416       .  A
C667       Br674   1.932   1_655  S
C668       C1483   1.415       .  A
C668       C2301   1.416       .  A
C669        C670   1.410       .  A
C669       C2300   1.416       .  A
C669       Br676   1.935   1_565  S
C670       C2303   1.412       .  A
C670       Br675   1.934   1_565  S
C671       C2302   1.412       .  A
C671       C1488   1.416       .  A
C672       C1487   1.414   1_455  A
C672       Br673   1.932       .  S
C677        C678   1.413   1_545  A
C677        C682   1.410       .  A
C677       Br684   1.933       .  S
C678       C1495   1.411       .  A
C679        C680   1.409       .  A
C679       C1494   1.412       .  A
C679       Br686   1.933       .  S
C680       C1497   1.413       .  A
C680       Br685   1.933       .  S
C681        C682   1.413   1_565  A
C681       C1496   1.414       .  A
C682       Br683   1.933       .  S
C687        C692   1.410       .  A
C687       C1504   1.413       .  A
C687       Br694   1.934       .  S
C688        C689   1.411   1_565  A
C688       C1503   1.413       .  A
C689        C690   1.409       .  A
C689       Br696   1.931       .  S
C690        C691   1.411   1_545  A
C690       Br695   1.932       .  S
C691       C1508   1.410       .  A
C692       C1507   1.414       .  A
C692       Br693   1.934       .  S
C697        C698   1.413       .  A
C697        C702   1.412       .  A
C697       Br704   1.933       .  S
C698        C699   1.413       .  A
C699        C700   1.412       .  A
C699       Br706   1.932       .  S
C700        C701   1.414       .  A
C700       Br705   1.932       .  S
C701        C702   1.414       .  A
C702       Br703   1.933       .  S
C707        C708   1.405       .  A
C707        C712   1.411       .  A
C707       Br714   1.933       .  S
C708        C709   1.406       .  A
C709        C710   1.413       .  A
C709       Br716   1.935       .  S
C710        C711   1.429       .  A
C710       Br715   1.938       .  S
C711        C712   1.426       .  A
C712       Br713   1.936       .  S
C717        C718   1.414       .  A
C717        C722   1.411       .  A
C717       Br724   1.934       .  S
C718        C719   1.415       .  A
C719        C720   1.413       .  A
C719       Br726   1.933       .  S
C720        C721   1.415       .  A
C720       Br725   1.933       .  S
C721        C722   1.415       .  A
C722       Br723   1.934       .  S
C727        C728   1.414       .  A
C727        C732   1.413       .  A
C727       Br734   1.933       .  S
C728        C729   1.413       .  A
C729        C730   1.411       .  A
C729       Br736   1.933       .  S
C730        C731   1.413       .  A
C730       Br735   1.933       .  S
C731        C732   1.414       .  A
C732       Br733   1.932       .  S
C737        C738   1.412       .  A
C737        C742   1.411       .  A
C737       Br744   1.931       .  S
C738       C1555   1.411   1_545  A
C739        C740   1.410       .  A
C739       C1554   1.412       .  A
C739       Br746   1.933       .  S
C740       C1557   1.412       .  A
C740       Br745   1.932       .  S
C741        C742   1.413       .  A
C741       C1556   1.412   1_545  A
C742       Br743   1.932       .  S
C747        C752   1.411       .  A
C747       C1564   1.410       .  A
C747       Br754   1.930       .  S
C748        C749   1.412   1_565  A
C748       C1563   1.412       .  A
C749        C750   1.410       .  A
C749       Br756   1.931       .  S
C750        C751   1.411   1_545  A
C750       Br755   1.932       .  S
C751       C1568   1.411       .  A
C752       C1567   1.413       .  A
C752       Br753   1.931       .  S
C757        C762   1.415       .  A
C757       C2390   1.422       .  A
C757       Br764   1.942       .  S
C758       C1772   1.514       .  S
C758        C759   1.422   1_655  A
C758       C2389   1.428       .  A
C759        C760   1.416       .  A
C759       Br766   1.946       .  S
C760        C761   1.428   1_455  A
C760       Br765   1.944       .  S
C761       C2394   1.421       .  A
C762       C2393   1.423       .  A
C762       Br763   1.942       .  S
C767        C768   1.430       .  A
C767        C772   1.412       .  A
C767       Br774   1.939       .  S
C768       C2401   1.427   1_455  A
C769        C770   1.412       .  A
C769       C2400   1.427       .  A
C769       Br776   1.937       .  S
C770       C2403   1.407       .  A
C770       Br775   1.937       .  S
C771        C772   1.407       .  A
C771       C2402   1.407   1_455  A
C772       Br773   1.938       .  S
C777        C782   1.413       .  A
C777       C2410   1.413   1_455  A
C777       Br784   1.931       .  S
C778       C1660   1.493       .  S
C778        C779   1.414       .  A
C778       C2409   1.413       .  A
C779        C780   1.414       .  A
C779       Br786   1.927       .  S
C780        C781   1.411       .  A
C780       Br785   1.931       .  S
C781       C2414   1.413       .  A
C782       C2413   1.413   1_455  A
C782       Br783   1.931       .  S
C787        C792   1.415       .  A
C787       C2420   1.416   1_455  A
C787       Br794   1.931       .  S
C788       C1659   1.499       .  S
C788        C789   1.416       .  A
C788       C2419   1.417       .  A
C789        C790   1.414       .  A
C789       Br796   1.932       .  S
C790        C791   1.413       .  A
C790       Br795   1.933       .  S
C791       C2424   1.411       .  A
C792       C2423   1.413   1_455  A
C792       Br793   1.931       .  S
C797        C802   1.414       .  A
C797       C1614   1.412   1_455  A
C797       Br804   1.931       .  S
C798       C1613   1.412   1_655  A
C798       C2431   1.412       .  A
C799        C800   1.412       .  A
C799       C2430   1.413       .  A
C799       Br806   1.932   1_565  S
C800       C2433   1.413       .  A
C800       Br805   1.932   1_565  S
C801       C2432   1.413       .  A
C801       C1618   1.414   1_655  A
C802       C1617   1.414   1_455  A
C802       Br803   1.931       .  S
C807        C808   1.411   1_445  A
C807        C812   1.415       .  A
C807       Br814   1.935       .  S
C808       C3257   1.411       .  A
C809        C810   1.414       .  A
C809       C3256   1.409       .  A
C809       Br816   1.936       .  S
C810       C3259   1.427       .  A
C810       Br815   1.937       .  S
C811        C812   1.425   1_665  A
C811       C3258   1.424       .  A
C812       Br813   1.936       .  S
O817        V825   1.907       .  S
O817       C1643   1.266       .  A
O818        V825   1.908       .  S
O818       C1644   1.266       .  A
O819        V825   1.911       .  S
O819        C829   1.266       .  A
O820        C830   1.267       .  A
O821        V826   1.913       .  S
O821       C2462   1.267   1_455  A
O822       C2461   1.265   1_455  A
O823        V826   1.910       .  S
O823        C828   1.267   1_455  A
O824        V826   1.909       .  S
O824        C827   1.266   1_455  A
V825       V1642   2.083       .  T
V826       V1641   2.083   1_455  T
C827       O1633   1.265       .  A
C827       C1627   1.513       .  S
C828       O1634   1.266       .  A
C828       C1617   1.490       .  S
C829       O2454   1.265       .  A
C829       C1597   1.486       .  S
C830       O2453   1.267       .  A
C830       C1607   1.494       .  S
O831        V839   1.907       .  S
O831       C2473   1.266       .  A
O832        V839   1.906       .  S
O832       C2474   1.266       .  A
O833        V839   1.907       .  S
O833       C2475   1.265       .  A
O834        V839   1.907       .  S
O834       C2476   1.265       .  A
O835        V840   1.909       .  S
O835        C844   1.266   1_455  A
O836        V840   1.915       .  S
O836        C843   1.268   1_455  A
O837        V840   1.904       .  S
O837        C842   1.265   1_455  A
O838        V840   1.905       .  S
O838        C841   1.265   1_455  A
V839       V2472   2.082       .  T
V840       V2471   2.082   1_455  T
C841       O2463   1.266       .  A
C841       C1584   1.511       .  S
C842       O2464   1.266       .  A
C842       C1577   1.490       .  S
C843       O2465   1.266       .  A
C843       C3236   1.494       .  S
C844       O2466   1.265       .  A
C844       C3226   1.487       .  S
O845        V853   1.907       .  S
O845        C855   1.266       .  A
O846        C856   1.265       .  A
O847        V853   1.906       .  S
O847        C857   1.265       .  A
O848        V853   1.906       .  S
O848        C858   1.266       .  A
O849        V854   1.901       .  S
O850        V854   1.899       .  S
O851        V854   1.907       .  S
O851        C856   1.266       .  A
O852        C855   1.267       .  A
C855       C1544   1.495       .  S
C856       C1534   1.492       .  S
C857       C1554   1.483       .  S
C858       C1567   1.483       .  S
O859        V867   1.906       .  S
O859        C869   1.266       .  A
O860        V867   1.908       .  S
O860        C870   1.266       .  A
O861        V867   1.906       .  S
O861        C871   1.265       .  A
O862        V867   1.905       .  S
O862        C872   1.265       .  A
O863        V868   1.906       .  S
O863        C872   1.265       .  A
O864        V868   1.905       .  S
O864        C871   1.265       .  A
O865        V868   1.908       .  S
O865        C870   1.266       .  A
O866        V868   1.906       .  S
O866        C869   1.266       .  A
V867        V868   2.085       .  T
C869       C1537   1.495       .  S
C870       C1547   1.495       .  S
C871       C1524   1.481       .  S
C872       C1514   1.485       .  S
O873        V881   1.899       .  S
O873        C883   1.264       .  A
O874       V2513   1.900       .  S
O874        C884   1.264       .  A
O875        V881   1.905       .  S
O875        C885   1.266   1_455  A
O876        V881   1.905       .  S
O876        C886   1.265   1_455  A
O877        V882   1.904       .  S
O877       C1702   1.265       .  A
O878        V882   1.909       .  S
O878       C1701   1.266       .  A
O879        V882   1.906       .  S
O880       V2514   1.905   1_455  S
V881       O2506   1.899   1_455  S
V881       V1698   2.085   1_455  T
V882       O2512   1.905       .  S
V882       V1697   2.086   1_565  T
C883       C1507   1.484       .  S
C884       C1494   1.480       .  S
C885       O1694   1.266       .  A
C885       C1487   1.493       .  S
C886       O1693   1.267       .  A
C886       C1624   1.492       .  S
O887       V2527   1.897   1_455  S
O887        C897   1.263       .  A
O888        V895   1.898       .  S
O888        C898   1.264       .  A
O889        V895   1.903       .  S
O889       C2531   1.264       .  A
O890        V895   1.897       .  S
O890       C2532   1.263       .  A
O891        V896   1.907       .  S
O891        C900   1.265       .  A
O892        V896   1.908       .  S
O892        C899   1.266       .  A
O893       V2528   1.904       .  S
O893        C898   1.265       .  A
O894        V896   1.904       .  S
O894        C897   1.266       .  A
V895       O2519   1.897       .  S
V895       V2528   2.083       .  T
V896       O2525   1.904   1_455  S
V896       V2527   2.083   1_455  T
C897       C1474   1.483       .  S
C898       C1464   1.485       .  S
C899       O2521   1.264   1_455  A
C899       C1587   1.483       .  S
C900       O2522   1.263   1_455  A
C900       C1457   1.510       .  S
O901        V909   1.911       .  S
O902        V909   1.908       .  S
O903        V909   1.895       .  S
O904        V909   1.898       .  S
O905        V910   1.899       .  S
O905        C914   1.265       .  A
O906        V910   1.903       .  S
O906        C913   1.265       .  A
O907        V910   1.898       .  S
O907        C912   1.263       .  A
O908        V910   1.899       .  S
O908        C911   1.264       .  A
C911       C1447   1.489       .  S
C912       C1564   1.482       .  S
C913       C1497   1.482       .  S
C914       C1504   1.482       .  S
O915        V923   1.901       .  S
O915        C925   1.264       .  A
O916        V923   1.899       .  S
O916        C926   1.264       .  A
O917        V923   1.901       .  S
O917        C927   1.265       .  A
O918        V923   1.896       .  S
O918        C928   1.263       .  A
O919        V924   1.903       .  S
O919        C928   1.265       .  A
O920        V924   1.899       .  S
O920        C927   1.264       .  A
O921        V924   1.908       .  S
O921        C926   1.266       .  A
O922        V924   1.907       .  S
O922        C925   1.266       .  A
V923        V924   2.083       .  T
C925       C1434   1.482       .  S
C926       C1527   1.504       .  S
C927       C1477   1.480       .  S
C928       C1467   1.479       .  S
O929        V937   1.907       .  S
O929       C1755   1.266       .  A
O930        V937   1.907       .  S
O930       C1756   1.266       .  A
O931       C2573   1.265       .  A
O932        V937   1.905       .  S
O932       C2574   1.266       .  A
O933        C942   1.266   1_455  A
O934        V938   1.907       .  S
O934        C941   1.266   1_455  A
O935        V938   1.907       .  S
O935        C940   1.266   1_455  A
O936        V938   1.906       .  S
O936        C939   1.265   1_455  A
V937       V1754   2.085   1_565  T
V938       V1753   2.086   1_455  T
C939       O1745   1.265       .  A
C939       C1424   1.484       .  S
C940       O1746   1.266       .  A
C940       C1614   1.487       .  S
C941       O2563   1.265       .  A
C941       C1414   1.490       .  S
C942       O2564   1.266       .  A
C942       C1404   1.493       .  S
O943        V951   1.904       .  S
O943       C2585   1.265       .  A
O944        V951   1.905       .  S
O944       C2586   1.266       .  A
O945        V951   1.905       .  S
O945        C955   1.265       .  A
O946        V951   1.907       .  S
O946        C956   1.266       .  A
O947        V952   1.903       .  S
O947       C2588   1.265   1_455  A
O948        V952   1.900       .  S
O948       C2587   1.264   1_455  A
O949        V952   1.909       .  S
O949        C954   1.266   1_455  A
O950        V952   1.906       .  S
O950        C953   1.266   1_455  A
V951       V2584   2.085       .  T
V952       V2583   2.085   1_455  T
C953       O2575   1.266       .  A
C953       C1417   1.491       .  S
C954       O2576   1.266       .  A
C954       C1407   1.492       .  S
C955       O2580   1.264       .  A
C955       C1394   1.480       .  S
C956       O2579   1.265       .  A
C956       C3206   1.488       .  S
O957        V965   1.904       .  S
O958        V965   1.904       .  S
O959        C969   1.266       .  A
O960        V965   1.901       .  S
O960        C970   1.264       .  A
O961        C970   1.267       .  A
O962        V966   1.912       .  S
O962        C969   1.268       .  A
O963        V966   1.901       .  S
O963        C968   1.264       .  A
O964        V966   1.902       .  S
O964        C967   1.264       .  A
C967       C1384   1.503       .  S
C968       C1557   1.484       .  S
C969       C1377   1.494       .  S
C970       C1367   1.489       .  S
O971        V979   1.910       .  S
O971        C981   1.267       .  A
O972        V979   1.910       .  S
O972        C982   1.267       .  A
O973        V979   1.906       .  S
O973        C983   1.265       .  A
O974        V979   1.904       .  S
O974        C984   1.264       .  A
O975        V980   1.914       .  S
O975        C984   1.268       .  A
O976        V980   1.914       .  S
O976        C983   1.268       .  A
O977        V980   1.902       .  S
O977        C982   1.264       .  A
O978        V980   1.901       .  S
O978        C981   1.263       .  A
V979        V980   2.081       .  T
C981       C1357   1.515       .  S
C982       C1517   1.488       .  S
C983       C1374   1.497       .  S
C984       C1364   1.493       .  S
O985       V2625   1.903   1_455  S
O985        C995   1.265       .  A
O986        C996   1.264       .  A
O987        V993   1.909       .  S
O987       C2629   1.267       .  A
O988        V993   1.908       .  S
O988       C2630   1.266       .  A
O989        V994   1.901   1_545  S
O990        V994   1.901       .  S
O991       V2626   1.910       .  S
O991        C996   1.268       .  A
O992        C995   1.267       .  A
V993       O2617   1.903       .  S
V993       V1810   2.086       .  T
V994       O2623   1.910   1_455  S
V994       V1809   2.086   1_465  T
C995       C1334   1.488       .  S
C996       C1327   1.494       .  S
C997       O2619   1.267       .  A
C997       C1427   1.483       .  S
C998       O2620   1.266       .  A
C998       C1347   1.484       .  S
O999       V1007   1.901       .  S
O999       C1009   1.264       .  A
O1000      V1007   1.901       .  S
O1000      C1010   1.265       .  A
O1001      V1007   1.899       .  S
O1001      C1011   1.265       .  A
O1002      V2639   1.904   1_455  S
O1002      C1012   1.265       .  A
O1003      V1008   1.902       .  S
O1003      C1012   1.266       .  A
O1004      V2640   1.909       .  S
O1004      C1011   1.266       .  A
O1005      V1008   1.909       .  S
O1005      C2642   1.267       .  A
O1006      V1008   1.904       .  S
O1006      C2641   1.265   1_455  A
V1007      O2634   1.904       .  S
V1007      V2640   2.072       .  T
V1008      O2636   1.908   1_455  S
V1008      V2639   2.072   1_455  T
C1009      O2638   1.265       .  A
C1009      C1397   1.508       .  S
C1010      O2637   1.267       .  A
C1010      C2946   1.486       .  S
C1011      C1294   1.498       .  S
C1012      C1304   1.495       .  S
O1013      V1021   1.905       .  S
O1013      C1023   1.267       .  A
O1014      C1024   1.266       .  A
O1015      V1021   1.906       .  S
O1016      V1021   1.909       .  S
O1017      V1022   1.903       .  S
O1017      C1026   1.264       .  A
O1018      V1022   1.901       .  S
O1018      C1025   1.265       .  A
O1019      V1022   1.898       .  S
O1019      C1024   1.265       .  A
O1020      C1023   1.264       .  A
C1023      C1307   1.494       .  S
C1024      C1297   1.498       .  S
C1025      C1387   1.489       .  S
C1026      C1284   1.484       .  S
O1027      V1035   1.907       .  S
O1027      C1037   1.266       .  A
O1028      V1035   1.908       .  S
O1028      C1038   1.266       .  A
O1029      V1035   1.910       .  S
O1029      C1039   1.267       .  A
O1030      V1035   1.907       .  S
O1030      C1040   1.265       .  A
O1031      V1036   1.900       .  S
O1031      C1040   1.264       .  A
O1032      V1036   1.901       .  S
O1032      C1039   1.264       .  A
O1033      V1036   1.907       .  S
O1033      C1038   1.266       .  A
O1034      V1036   1.906       .  S
O1034      C1037   1.266       .  A
V1035      V1036   2.085       .  T
C1037      C1324   1.495       .  S
C1038      C1337   1.490       .  S
C1039      C1354   1.489       .  S
C1040      C1274   1.483       .  S
O1041      V1049   1.917       .  S
O1041      C1867   1.269       .  A
O1042      V1049   1.914       .  S
O1042      C1868   1.268   1_565  A
O1043      V1049   1.901       .  S
O1044      V2681   1.905   1_455  S
O1045      V1050   1.902       .  S
O1045      C1054   1.265       .  A
O1046      V2682   1.908       .  S
O1046      C1053   1.266       .  A
O1047      V1050   1.898       .  S
O1047      C1052   1.262   1_455  A
O1048      V1050   1.899       .  S
O1048      C1051   1.265   1_455  A
V1049      O2676   1.905       .  S
V1049      V1866   2.082   1_565  T
V1050      O2678   1.908   1_455  S
V1050      V1865   2.082   1_455  T
C1051      O1857   1.268       .  A
C1051      C1484   1.495       .  S
C1052      O1858   1.267       .  A
C1052      C1264   1.511       .  S
C1053      C1244   1.483       .  S
C1054      C1254   1.483       .  S
O1055      V1063   1.902       .  S
O1055      C1065   1.265       .  A
O1056      V2695   1.896   1_455  S
O1056      C1066   1.264       .  A
O1057      V1063   1.896       .  S
O1057      C2699   1.262       .  A
O1058      V1063   1.883       .  S
O1058      C2700   1.260       .  A
O1059      V1064   1.917       .  S
O1059      C1068   1.268       .  A
O1060      V1064   1.907       .  S
O1060      C1067   1.265       .  A
O1061      V1064   1.889       .  S
O1061      C1066   1.262       .  A
O1062      V2696   1.884       .  S
O1062      C1065   1.261       .  A
V1063      O2688   1.897       .  S
V1063      V2696   2.079       .  T
V1064      O2694   1.884   1_455  S
V1064      V2695   2.079   1_455  T
C1065      C1214   1.483       .  S
C1066      C1224   1.489       .  S
C1067      O2689   1.262   1_455  A
C1067      C1234   1.473       .  S
C1068      O2690   1.260   1_455  A
C1068      C1454   1.501       .  S
O1069      V1077   1.910       .  S
O1069      C1079   1.268       .  A
O1070      V1077   1.913       .  S
O1070      C1080   1.268       .  A
O1071      V1077   1.899       .  S
O1071      C1081   1.264       .  A
O1072      V1077   1.902       .  S
O1072      C1082   1.264       .  A
O1073      V1078   1.901       .  S
O1074      V1078   1.906       .  S
O1075      V1078   1.896       .  S
O1076      V1078   1.902       .  S
C1079      C1444   1.488       .  S
C1080      C1207   1.495       .  S
C1081      C1247   1.480       .  S
C1082      C1257   1.478       .  S
O1083      V1091   1.910       .  S
O1083      C1093   1.266       .  A
O1084      V1091   1.901       .  S
O1084      C1094   1.263       .  A
O1085      V1091   1.901       .  S
O1085      C1095   1.264       .  A
O1086      V1091   1.901       .  S
O1086      C1096   1.266       .  A
O1087      V1092   1.884       .  S
O1087      C1096   1.259       .  A
O1088      V1092   1.884       .  S
O1088      C1095   1.261       .  A
O1089      V1092   1.908       .  S
O1089      C1094   1.266       .  A
O1090      V1092   1.900       .  S
O1090      C1093   1.264       .  A
V1091      V1092   2.083       .  T
C1093      C1437   1.484       .  S
C1094      C1194   1.478       .  S
C1095      C1217   1.490       .  S
C1096      C1227   1.490       .  S
O1097      V2737   1.912   1_565  S
O1097      C1107   1.267       .  A
O1098      C1108   1.267       .  A
O1099      V1105   1.895       .  S
O1100      V1105   1.899       .  S
O1101      V1106   1.907       .  S
O1101      C2742   1.267       .  A
O1102      V1106   1.909       .  S
O1102      C2741   1.266       .  A
O1103      V2738   1.906   1_455  S
O1103      C1108   1.266       .  A
O1104      C1107   1.263   1_545  A
V1105      O2729   1.912   1_445  S
V1105      V1922   2.086   1_455  T
V1106      O2735   1.906       .  S
V1106      V1921   2.086       .  T
C1107      C1174   1.486       .  S
C1108      C1187   1.494       .  S
C1109      O2734   1.266   1_455  A
C1109      C1344   1.482   1_455  S
C1110      O2733   1.267   1_455  A
C1110      C1267   1.489       .  S
O1111      V1119   1.899       .  S
O1111      C1121   1.264       .  A
O1112      V1119   1.901       .  S
O1112      C1122   1.264       .  A
O1113      V2751   1.906       .  S
O1113      C1123   1.265       .  A
O1114      V1119   1.908       .  S
O1114      C1124   1.266       .  A
O1115      V2752   1.907   1_455  S
O1115      C1124   1.266       .  A
O1116      V1120   1.907       .  S
O1116      C1123   1.266       .  A
O1117      V1120   1.895       .  S
O1117      C2754   1.263       .  A
O1118      V1120   1.896       .  S
O1118      C2753   1.264       .  A
V1119      O2745   1.906   1_455  S
V1119      V2752   2.086   1_455  T
V1120      O2747   1.907       .  S
V1120      V2751   2.086       .  T
C1121      O2750   1.264   1_455  A
C1121      C1237   1.484       .  S
C1122      O2749   1.263   1_455  A
C1122      C1317   1.476       .  S
C1123      C1154   1.487       .  S
C1124      C1164   1.491       .  S
O1125      V1133   1.901       .  S
O1126      V1133   1.897       .  S
O1127      C1137   1.264       .  A
O1128      V1133   1.910       .  S
O1128      C1138   1.266       .  A
O1129      C1138   1.266       .  A
O1130      V1134   1.912       .  S
O1130      C1137   1.267       .  A
O1131      V1134   1.907       .  S
O1131      C1136   1.266       .  A
O1132      V1134   1.905       .  S
O1132      C1135   1.265       .  A
C1135      C1287   1.480       .  S
C1136      C1204   1.497       .  S
C1137      C1157   1.487       .  S
C1138      C1167   1.493       .  S
O1139      V1147   1.906       .  S
O1139      C1149   1.265       .  A
O1140      V1147   1.900       .  S
O1140      C1150   1.265       .  A
O1141      V1147   1.909       .  S
O1141      C1151   1.267       .  A
O1142      V1147   1.908       .  S
O1142      C1152   1.266       .  A
O1143      V1148   1.907       .  S
O1143      C1152   1.266       .  A
O1144      V1148   1.906       .  S
O1144      C1151   1.266       .  A
O1145      V1148   1.904       .  S
O1145      C1150   1.265       .  A
O1146      V1148   1.901       .  S
O1146      C1149   1.265       .  A
V1147      V1148   2.086       .  T
C1149      C1277   1.483       .  S
C1150      C1197   1.487       .  S
C1151      C1184   1.494       .  S
C1152      C1177   1.487       .  S
C1153      C1154   1.413       .  A
C1153      C1158   1.413       .  A
C1153     Br1160   1.931       .  S
C1154      C1155   1.411       .  A
C1155      C1156   1.411       .  A
C1155     Br1162   1.932       .  S
C1156      C1157   1.414       .  A
C1156     Br1161   1.933       .  S
C1157      C1158   1.412       .  A
C1158     Br1159   1.930       .  S
C1163      C1164   1.413       .  A
C1163      C1168   1.413       .  A
C1163     Br1170   1.931       .  S
C1164      C1165   1.413       .  A
C1165      C1166   1.413       .  A
C1165     Br1172   1.933       .  S
C1166      C1167   1.415       .  A
C1166     Br1171   1.933       .  S
C1167      C1168   1.415       .  A
C1168     Br1169   1.932       .  S
C1173      C1174   1.413       .  A
C1173      C1178   1.411       .  A
C1173     Br1180   1.933       .  S
C1174      C1175   1.412       .  A
C1175      C1176   1.412       .  A
C1175     Br1182   1.931       .  S
C1176      C1177   1.412       .  A
C1176     Br1181   1.930       .  S
C1177      C1178   1.413       .  A
C1178     Br1179   1.932       .  S
C1183      C1184   1.414       .  A
C1183      C1188   1.413       .  A
C1183     Br1190   1.932       .  S
C1184      C1185   1.416       .  A
C1185      C1186   1.415       .  A
C1185     Br1192   1.933       .  S
C1186      C1187   1.414       .  A
C1186     Br1191   1.932       .  S
C1187      C1188   1.414       .  A
C1188     Br1189   1.933       .  S
C1193      C1194   1.408       .  A
C1193      C1198   1.411       .  A
C1193     Br1200   1.931       .  S
C1194      C1195   1.407       .  A
C1195      C1196   1.408       .  A
C1195     Br1202   1.926       .  S
C1196      C1197   1.415       .  A
C1196     Br1201   1.934       .  S
C1197      C1198   1.416       .  A
C1198     Br1199   1.931       .  S
C1203      C1208   1.414       .  A
C1203     Br1210   1.935       .  S
C1204      C1205   1.417       .  A
C1205      C1206   1.409       .  A
C1205     Br1212   1.938       .  S
C1206      C1207   1.416       .  A
C1206     Br1211   1.937       .  S
C1208     Br1209   1.934       .  S
C1213      C1214   1.412       .  A
C1213      C1218   1.406       .  A
C1213     Br1220   1.938       .  S
C1214      C1215   1.416       .  A
C1215      C1216   1.407       .  A
C1215     Br1222   1.940       .  S
C1216      C1217   1.417       .  A
C1216     Br1221   1.937       .  S
C1217      C1218   1.420       .  A
C1218     Br1219   1.940       .  S
C1223      C1224   1.417       .  A
C1223      C1228   1.408       .  A
C1223     Br1230   1.942       .  S
C1224      C1225   1.419       .  A
C1225      C1226   1.408       .  A
C1225     Br1232   1.940       .  S
C1226      C1227   1.416       .  A
C1226     Br1231   1.940       .  S
C1227      C1228   1.421       .  A
C1228     Br1229   1.943       .  S
C1233      C2866   1.406       .  A
C1233      C1238   1.407       .  A
C1233     Br1240   1.927       .  S
C1234      C2865   1.406   1_455  A
C1234      C1235   1.406       .  A
C1235      C1236   1.408       .  A
C1235     Br1242   1.930       .  S
C1236      C1237   1.418       .  A
C1236     Br1241   1.934       .  S
C1237      C2870   1.415   1_455  A
C1238      C2869   1.415       .  A
C1238     Br1239   1.934       .  S
C1243      C1248   1.411       .  A
C1243     Br1250   1.932       .  S
C1244      C1245   1.412       .  A
C1245      C1246   1.409       .  A
C1245     Br1252   1.928       .  S
C1246      C1247   1.411       .  A
C1246     Br1251   1.933       .  S
C1248     Br1249   1.931       .  S
C1253      C1254   1.413       .  A
C1253      C1258   1.409       .  A
C1253     Br1260   1.929       .  S
C1255      C1256   1.410       .  A
C1255     Br1262   1.932       .  S
C1256     Br1261   1.931       .  S
C1257      C1258   1.409       .  A
C1258     Br1259   1.932       .  S
C1263      C2080   1.427   1_565  A
C1263      C1268   1.414       .  A
C1263     Br1270   1.938       .  S
C1264      C2079   1.426       .  A
C1264      C1265   1.430   1_655  A
C1265      C1266   1.414       .  A
C1265     Br1272   1.939       .  S
C1266      C1267   1.408       .  A
C1266     Br1271   1.937       .  S
C1267      C2084   1.411   1_455  A
C1268      C2083   1.411   1_565  A
C1268     Br1269   1.938       .  S
C1273      C1274   1.411       .  A
C1273      C1278   1.408       .  A
C1273     Br1280   1.932       .  S
C1274      C1275   1.414       .  A
C1275      C1276   1.412       .  A
C1275     Br1282   1.932       .  S
C1276      C1277   1.412       .  A
C1276     Br1281   1.931       .  S
C1277      C1278   1.412       .  A
C1278     Br1279   1.932       .  S
C1283      C1284   1.411       .  A
C1283      C1288   1.410       .  A
C1283     Br1290   1.924       .  S
C1285      C1286   1.409       .  A
C1285     Br1292   1.926       .  S
C1286     Br1291   1.930       .  S
C1287      C1288   1.409       .  A
C1288     Br1289   1.930       .  S
C1293      C1294   1.418       .  A
C1293      C1298   1.415       .  A
C1293     Br1300   1.934       .  S
C1294      C1295   1.418       .  A
C1295      C1296   1.409       .  A
C1295     Br1302   1.940       .  S
C1296      C1297   1.417       .  A
C1296     Br1301   1.940       .  S
C1297      C1298   1.419       .  A
C1298     Br1299   1.936       .  S
C1303      C1304   1.416       .  A
C1303      C1308   1.410       .  A
C1303     Br1310   1.937       .  S
C1304      C1305   1.418       .  A
C1305      C1306   1.412       .  A
C1305     Br1312   1.934       .  S
C1306      C1307   1.418       .  A
C1306     Br1311   1.937       .  S
C1307      C1308   1.416       .  A
C1308     Br1309   1.936       .  S
C1313      C2946   1.413       .  A
C1313      C1318   1.411       .  A
C1313     Br1320   1.925       .  S
C1314      C2642   1.486       .  S
C1314      C2945   1.413   1_455  A
C1314      C1315   1.412       .  A
C1315      C1316   1.406       .  A
C1315     Br1322   1.923       .  S
C1316      C1317   1.409       .  A
C1316     Br1321   1.935       .  S
C1317      C2950   1.411   1_455  A
C1318      C2949   1.411       .  A
C1318     Br1319   1.933       .  S
C1323      C1324   1.417       .  A
C1323      C1328   1.413       .  A
C1323     Br1330   1.934       .  S
C1324      C1325   1.415       .  A
C1325      C1326   1.413       .  A
C1325     Br1332   1.934       .  S
C1326      C1327   1.416       .  A
C1326     Br1331   1.934       .  S
C1327      C1328   1.413       .  A
C1328     Br1329   1.933       .  S
C1333      C1334   1.412       .  A
C1333      C1338   1.412       .  A
C1333     Br1340   1.932       .  S
C1334      C1335   1.413       .  A
C1335      C1336   1.412       .  A
C1335     Br1342   1.933       .  S
C1336      C1337   1.413       .  A
C1336     Br1341   1.932       .  S
C1337      C1338   1.414       .  A
C1338     Br1339   1.931       .  S
C1343      C2976   1.414       .  A
C1343      C1348   1.412       .  A
C1343     Br1350   1.932       .  S
C1344      C2975   1.414       .  A
C1345      C1346   1.409       .  A
C1345     Br1352   1.933       .  S
C1346     Br1351   1.933       .  S
C1347      C2980   1.412       .  A
C1348      C2979   1.412       .  A
C1348     Br1349   1.931       .  S
C1353      C1354   1.408       .  A
C1353      C1358   1.414   1_556  A
C1353     Br1360   1.936       .  S
C1354      C1355   1.407       .  A
C1355      C1356   1.415   1_556  A
C1355     Br1362   1.937       .  S
C1356      C1357   1.431       .  A
C1356     Br1361   1.938       .  S
C1357      C1358   1.428       .  A
C1358     Br1359   1.937       .  S
C1363      C1364   1.416       .  A
C1363      C1368   1.415       .  A
C1363     Br1370   1.931       .  S
C1364      C1365   1.413       .  A
C1365      C1366   1.411       .  A
C1365     Br1372   1.930       .  S
C1366      C1367   1.412       .  A
C1366     Br1371   1.933       .  S
C1367      C1368   1.412       .  A
C1368     Br1369   1.931       .  S
C1373      C1374   1.416       .  A
C1373      C1378   1.414       .  A
C1373     Br1380   1.932       .  S
C1374      C1375   1.415       .  A
C1375      C1376   1.415       .  A
C1375     Br1382   1.932       .  S
C1376      C1377   1.414       .  A
C1376     Br1381   1.932       .  S
C1377      C1378   1.412       .  A
C1378     Br1379   1.932       .  S
C1383      C1388   1.411   1_554  A
C1383     Br1390   1.934   1_565  S
C1384      C1385   1.424       .  A
C1385      C1386   1.414   1_554  A
C1385     Br1392   1.936       .  S
C1386      C1387   1.410       .  A
C1386     Br1391   1.934       .  S
C1388     Br1389   1.934       .  S
C1393      C3026   1.405       .  A
C1393      C1398   1.412   1_554  A
C1393     Br1400   1.936       .  S
C1394      C3025   1.405       .  A
C1394      C1395   1.406       .  A
C1395      C1396   1.412   1_554  A
C1395     Br1402   1.936       .  S
C1396      C1397   1.428       .  A
C1396     Br1401   1.938       .  S
C1397      C3030   1.429       .  A
C1398      C3029   1.429       .  A
C1398     Br1399   1.938       .  S
C1403      C3036   1.415       .  A
C1403      C1408   1.412       .  A
C1403     Br1410   1.934       .  S
C1404      C3035   1.415       .  A
C1404      C1405   1.414   1_655  A
C1405      C1406   1.414       .  A
C1405     Br1412   1.932       .  S
C1406      C1407   1.415   1_455  A
C1406     Br1411   1.933       .  S
C1407      C3040   1.414       .  A
C1408      C3039   1.414       .  A
C1408     Br1409   1.934       .  S
C1413      C3046   1.414       .  A
C1413      C1418   1.412       .  A
C1413     Br1420   1.935       .  S
C1414      C3045   1.415       .  A
C1414      C1415   1.413   1_655  A
C1415      C1416   1.412       .  A
C1415     Br1422   1.933       .  S
C1416      C1417   1.414   1_455  A
C1416     Br1421   1.933       .  S
C1417      C3050   1.415       .  A
C1418      C3049   1.415       .  A
C1418     Br1419   1.934       .  S
C1423      C2240   1.410       .  A
C1423      C1428   1.411   1_554  A
C1423     Br1430   1.930       .  S
C1424      C2239   1.410       .  A
C1424      C1425   1.414   1_655  A
C1425      C1426   1.411   1_554  A
C1425     Br1432   1.931       .  S
C1426      C1427   1.411   1_455  A
C1426     Br1431   1.932       .  S
C1427      C2244   1.413       .  A
C1428      C2243   1.413   1_565  A
C1428     Br1429   1.931       .  S
C1433      C1434   1.411       .  A
C1433      C1438   1.410       .  A
C1433     Br1440   1.931       .  S
C1434      C1435   1.412       .  A
C1435      C1436   1.411       .  A
C1435     Br1442   1.932       .  S
C1436      C1437   1.411       .  A
C1436     Br1441   1.926       .  S
C1437      C1438   1.412       .  A
C1438     Br1439   1.932       .  S
C1443      C1448   1.413       .  A
C1443     Br1450   1.932       .  S
C1444      C1445   1.413       .  A
C1445      C1446   1.411       .  A
C1445     Br1452   1.933       .  S
C1446      C1447   1.414       .  A
C1446     Br1451   1.933       .  S
C1448     Br1449   1.931       .  S
C1453      C1454   1.416       .  A
C1453      C1458   1.418       .  A
C1453     Br1460   1.937       .  S
C1454      C3087   1.417   1_455  A
C1455      C3086   1.417       .  A
C1455      C1456   1.407       .  A
C1455     Br1462   1.944       .  S
C1456      C3089   1.424       .  A
C1456     Br1461   1.942       .  S
C1457      C3088   1.424   1_455  A
C1457      C1458   1.428       .  A
C1458     Br1459   1.938       .  S
C1463      C1464   1.413       .  A
C1463      C1468   1.409       .  A
C1463     Br1470   1.932       .  S
C1464      C1465   1.415       .  A
C1465      C1466   1.408       .  A
C1465     Br1472   1.931       .  S
C1466      C1467   1.410       .  A
C1466     Br1471   1.934       .  S
C1467      C1468   1.412       .  A
C1468     Br1469   1.933       .  S
C1473      C1474   1.414       .  A
C1473      C1478   1.409       .  A
C1473     Br1480   1.934       .  S
C1474      C1475   1.413       .  A
C1475      C1476   1.409       .  A
C1475     Br1482   1.932       .  S
C1476      C1477   1.411       .  A
C1476     Br1481   1.934       .  S
C1477      C1478   1.412       .  A
C1478     Br1479   1.933       .  S
C1483      C1488   1.417       .  A
C1483     Br1490   1.931   1_655  S
C1484      C3117   1.415       .  A
C1485      C3116   1.415       .  A
C1485      C1486   1.411       .  A
C1485     Br1492   1.934       .  S
C1486      C3119   1.413       .  A
C1486     Br1491   1.934       .  S
C1487      C3118   1.413       .  A
C1488     Br1489   1.932   1_655  S
C1493      C1494   1.411       .  A
C1493      C1498   1.409       .  A
C1493     Br1500   1.933       .  S
C1495      C1496   1.409       .  A
C1495     Br1502   1.932       .  S
C1496     Br1501   1.933       .  S
C1497      C1498   1.413       .  A
C1498     Br1499   1.932       .  S
C1503      C1508   1.409       .  A
C1503     Br1510   1.932       .  S
C1504      C1505   1.412       .  A
C1505      C1506   1.408       .  A
C1505     Br1512   1.934       .  S
C1506      C1507   1.414       .  A
C1506     Br1511   1.933       .  S
C1508     Br1509   1.932       .  S
C1513      C1514   1.411       .  A
C1513      C1518   1.411       .  A
C1513     Br1520   1.932       .  S
C1514      C1515   1.412       .  A
C1515      C1516   1.412       .  A
C1515     Br1522   1.931       .  S
C1516      C1517   1.413       .  A
C1516     Br1521   1.931       .  S
C1517      C1518   1.414       .  A
C1518     Br1519   1.932       .  S
C1523      C1524   1.406       .  A
C1523      C1528   1.413       .  A
C1523     Br1530   1.931       .  S
C1524      C1525   1.406       .  A
C1525      C1526   1.410       .  A
C1525     Br1532   1.932       .  S
C1526      C1527   1.424       .  A
C1526     Br1531   1.936       .  S
C1527      C1528   1.424       .  A
C1528     Br1529   1.934       .  S
C1533      C1534   1.414       .  A
C1533      C1538   1.412       .  A
C1533     Br1540   1.934       .  S
C1534      C1535   1.414       .  A
C1535      C1536   1.413       .  A
C1535     Br1542   1.934       .  S
C1536      C1537   1.417       .  A
C1536     Br1541   1.934       .  S
C1537      C1538   1.416       .  A
C1538     Br1539   1.934       .  S
C1543      C1544   1.415       .  A
C1543      C1548   1.414       .  A
C1543     Br1550   1.933       .  S
C1544      C1545   1.415       .  A
C1545      C1546   1.414       .  A
C1545     Br1552   1.933       .  S
C1546      C1547   1.415       .  A
C1546     Br1551   1.933       .  S
C1547      C1548   1.416       .  A
C1548     Br1549   1.933       .  S
C1553      C1554   1.412       .  A
C1553      C1558   1.411       .  A
C1553     Br1560   1.931       .  S
C1555      C1556   1.409       .  A
C1555     Br1562   1.932       .  S
C1556     Br1561   1.932       .  S
C1557      C1558   1.412       .  A
C1558     Br1559   1.931       .  S
C1563      C1568   1.410       .  A
C1563     Br1570   1.931       .  S
C1564      C1565   1.412       .  A
C1565      C1566   1.410       .  A
C1565     Br1572   1.932       .  S
C1566      C1567   1.411       .  A
C1566     Br1571   1.931       .  S
C1568     Br1569   1.932       .  S
C1573      C3206   1.414       .  A
C1573      C1578   1.412       .  A
C1573     Br1580   1.932       .  S
C1574      C2588   1.489       .  S
C1574      C3205   1.414       .  A
C1574      C1575   1.413   1_655  A
C1575      C1576   1.411       .  A
C1575     Br1582   1.934       .  S
C1576      C1577   1.415   1_455  A
C1576     Br1581   1.934       .  S
C1577      C3210   1.414       .  A
C1578      C3209   1.414       .  A
C1578     Br1579   1.933       .  S
C1583      C1584   1.428   1_455  A
C1583      C1588   1.413       .  A
C1583     Br1590   1.936       .  S
C1584      C3217   1.428       .  A
C1585      C3216   1.428       .  A
C1585      C1586   1.413       .  A
C1585     Br1592   1.936       .  S
C1586      C3219   1.406       .  A
C1586     Br1591   1.934       .  S
C1587      C3218   1.406   1_455  A
C1587      C1588   1.405       .  A
C1588     Br1589   1.934       .  S
C1593      C3226   1.411   1_455  A
C1593      C1598   1.412       .  A
C1593     Br1600   1.931       .  S
C1594      C2476   1.486       .  S
C1594      C3225   1.411       .  A
C1594      C1595   1.412       .  A
C1595      C1596   1.413       .  A
C1595     Br1602   1.930       .  S
C1596      C1597   1.411       .  A
C1596     Br1601   1.930       .  S
C1597      C3230   1.412       .  A
C1598      C3229   1.412   1_455  A
C1598     Br1599   1.931       .  S
C1603      C3236   1.413   1_455  A
C1603      C1608   1.416       .  A
C1603     Br1610   1.930       .  S
C1604      C2475   1.493       .  S
C1604      C3235   1.413       .  A
C1604      C1605   1.412       .  A
C1605      C1606   1.414       .  A
C1605     Br1612   1.931       .  S
C1606      C1607   1.413       .  A
C1606     Br1611   1.931       .  S
C1607      C3240   1.414       .  A
C1608      C3239   1.414   1_455  A
C1608     Br1609   1.930       .  S
C1613      C1618   1.413       .  A
C1613     Br1620   1.932       .  S
C1614      C3247   1.412       .  A
C1615      C3246   1.412       .  A
C1615      C1616   1.412       .  A
C1615     Br1622   1.933       .  S
C1616      C3249   1.414       .  A
C1616     Br1621   1.932       .  S
C1617      C3248   1.413       .  A
C1618     Br1619   1.931       .  S
C1623      C1624   1.410   1_455  A
C1623      C1628   1.415       .  A
C1623     Br1630   1.935       .  S
C1624      C2441   1.409       .  A
C1625      C2440   1.411       .  A
C1625      C1626   1.413       .  A
C1625     Br1632   1.936       .  S
C1626      C2443   1.424       .  A
C1626     Br1631   1.936       .  S
C1627      C2442   1.427       .  A
C1627      C1628   1.426   1_655  A
C1628     Br1629   1.936       .  S
O1633      V1641   1.905       .  S
O1634      V1641   1.906       .  S
O1635      V1641   1.913       .  S
O1635      C1645   1.267       .  A
O1636      V2457   1.907   1_545  S
O1636      C1646   1.266       .  A
O1637      V1642   1.909   1_545  S
O1638      V2458   1.906       .  S
O1639      V1642   1.908   1_545  S
O1639      C1644   1.266   1_545  A
O1640      V1642   1.904       .  S
O1640      C1643   1.265       .  A
V1641      O2452   1.911       .  S
V1642      O2454   1.904       .  S
C1643      C2443   1.508       .  S
C1644      C2433   1.490       .  S
C1645      C2413   1.489       .  S
C1646      C2423   1.492       .  S
O1647      V1655   1.905       .  S
O1648      V1655   1.903       .  S
O1649      V1655   1.907       .  S
O1650      V1655   1.907       .  S
O1651      V1656   1.913       .  S
O1651      C1660   1.267       .  A
O1652      V1656   1.914       .  S
O1652      C1659   1.268       .  A
O1653      V1656   1.901       .  S
O1653      C1658   1.266       .  A
O1654      V1656   1.900       .  S
O1654      C1657   1.264       .  A
C1657      C2400   1.509       .  S
C1658      C2393   1.507       .  S
O1661      V1669   1.906       .  S
O1661      C1671   1.265       .  A
O1662      V2485   1.902       .  S
O1662      C1672   1.265       .  A
O1663      V1669   1.908       .  S
O1663      C1673   1.266       .  A
O1664      V1669   1.906       .  S
O1664      C1674   1.266   1_545  A
O1665      V1670   1.903       .  S
O1665      C2490   1.264       .  A
O1666      V1670   1.901       .  S
O1666      C2489   1.264       .  A
O1667      V1670   1.907       .  S
O1667      C1672   1.266       .  A
O1668      V2486   1.906   1_545  S
O1668      C1671   1.266       .  A
V1669      O2478   1.903   1_545  S
V1669      V2486   2.086   1_545  T
V1670      O2484   1.910       .  S
V1670      V2485   2.086       .  T
C1671      C2360   1.489       .  S
C1672      C2350   1.490       .  S
C1673      O2482   1.264   1_545  A
C1673      C2370   1.483       .  S
C1674      O2481   1.264       .  A
C1674      C2383   1.481       .  S
O1675      V1683   1.906       .  S
O1675      C1685   1.266       .  A
O1676      V1683   1.904       .  S
O1676      C1686   1.266       .  A
O1677      V1683   1.905       .  S
O1677      C1687   1.265       .  A
O1678      V1683   1.904       .  S
O1678      C1688   1.265       .  A
O1679      V1684   1.908       .  S
O1679      C1688   1.266       .  A
O1680      V1684   1.905       .  S
O1680      C1687   1.265       .  A
O1681      V1684   1.908       .  S
O1681      C1686   1.266       .  A
O1682      V1684   1.905       .  S
O1682      C1685   1.266       .  A
V1683      V1684   2.086       .  T
C1685      C2353   1.492       .  S
C1686      C2363   1.489       .  S
C1687      C2340   1.482       .  S
C1688      C2330   1.488       .  S
O1689      V1697   1.898       .  S
O1689      C1699   1.263   1_545  A
O1690      C1700   1.263   1_545  A
O1691      V1697   1.907       .  S
O1691      C1701   1.267   1_545  A
O1692      V1697   1.908       .  S
O1692      C1702   1.266   1_545  A
O1693      V1698   1.910       .  S
O1694      V1698   1.911       .  S
O1695      V1698   1.900       .  S
O1695      C2516   1.264       .  A
O1696      C2515   1.264       .  A
C1699      O2512   1.266       .  A
C1699      C2323   1.480       .  S
C1700      O2511   1.266       .  A
C1700      C2310   1.482       .  S
C1701      C2303   1.493       .  S
C1702      C2440   1.492       .  S
O1703      C1713   1.263       .  A
O1704      V1711   1.902       .  S
O1704      C1714   1.265       .  A
O1705      V1711   1.903       .  S
O1706      V1711   1.901       .  S
O1707      V1712   1.896       .  S
O1707      C1716   1.262       .  A
O1708      V1712   1.899       .  S
O1708      C1715   1.264       .  A
O1709      C1714   1.265       .  A
O1710      V1712   1.907       .  S
O1710      C1713   1.266       .  A
C1713      C2290   1.483       .  S
C1714      C2280   1.485       .  S
C1715      C2403   1.484       .  S
C1716      C2273   1.505       .  S
O1717      V1725   1.912       .  S
O1717      C2543   1.267       .  A
O1718      V1725   1.912       .  S
O1718      C2544   1.267       .  A
O1719      V1725   1.899       .  S
O1719      C2545   1.264       .  A
O1720      V1725   1.899       .  S
O1720      C2546   1.264       .  A
O1721      V1726   1.907       .  S
O1721      C1730   1.267   1_545  A
O1722      V1726   1.908       .  S
O1722      C1729   1.266   1_545  A
O1723      V1726   1.900       .  S
O1723      C1728   1.264   1_545  A
O1724      V1726   1.900       .  S
O1724      C1727   1.264   1_545  A
V1725      V2542   2.087       .  T
V1726      V2541   2.087   1_545  T
C1727      O2533   1.267       .  A
C1727      C2263   1.487       .  S
C1728      O2534   1.266       .  A
C1728      C2380   1.483       .  S
C1729      O2535   1.263       .  A
C1729      C2313   1.483       .  S
C1730      O2536   1.263       .  A
C1730      C2320   1.482       .  S
O1731      V1739   1.899       .  S
O1731      C1741   1.264       .  A
O1732      V1739   1.899       .  S
O1732      C1742   1.263       .  A
O1733      V1739   1.904       .  S
O1733      C1743   1.265       .  A
O1734      V1739   1.900       .  S
O1734      C1744   1.264       .  A
O1735      V1740   1.899       .  S
O1735      C1744   1.264       .  A
O1736      V1740   1.898       .  S
O1736      C1743   1.263       .  A
O1737      V1740   1.906       .  S
O1737      C1742   1.266       .  A
O1738      V1740   1.907       .  S
O1738      C1741   1.266       .  A
V1739      V1740   2.083       .  T
C1741      C2250   1.484       .  S
C1742      C2343   1.508       .  S
C1743      C2293   1.481       .  S
C1744      C2283   1.477       .  S
O1745      V1753   1.905       .  S
O1746      V1753   1.906       .  S
O1747      V2569   1.904   1_545  S
O1748      V1753   1.905       .  S
O1749      V2570   1.911       .  S
O1749      C1758   1.267       .  A
O1750      V1754   1.904       .  S
O1750      C1757   1.266       .  A
O1751      V1754   1.906       .  S
O1751      C1756   1.266   1_545  A
O1752      V1754   1.906       .  S
O1752      C1755   1.265   1_545  A
V1753      O2563   1.904       .  S
V1754      O2565   1.909   1_545  S
C1755      C2240   1.485       .  S
C1756      C2430   1.488       .  S
C1757      C2230   1.492       .  S
C1758      C2220   1.493       .  S
O1759      V1767   1.902       .  S
O1760      V1767   1.906       .  S
O1761      V1767   1.903       .  S
O1761      C1771   1.264       .  A
O1762      V1767   1.903       .  S
O1762      C1772   1.259       .  A
O1763      V1768   1.900       .  S
O1764      V1768   1.898       .  S
O1765      V1768   1.908       .  S
O1765      C1770   1.266       .  A
O1766      V1768   1.909       .  S
O1766      C1769   1.267       .  A
C1769      C2233   1.493       .  S
C1770      C2223   1.496       .  S
C1771      C2210   1.478       .  S
O1773      V1781   1.908       .  S
O1773      C2599   1.267       .  A
O1774      V1781   1.907       .  S
O1774      C2600   1.266       .  A
O1775      V2597   1.907   1_545  S
O1775      C1785   1.266       .  A
O1776      V1781   1.897       .  S
O1776      C1786   1.263       .  A
O1777      V2598   1.914       .  S
O1777      C1786   1.268       .  A
O1778      V1782   1.910       .  S
O1778      C1785   1.267       .  A
O1779      V1782   1.902       .  S
O1779      C1784   1.264       .  A
O1780      V1782   1.902       .  S
O1780      C1783   1.265       .  A
V1781      O2591   1.908       .  S
V1781      V2598   2.083       .  T
V1782      O2593   1.914   1_545  S
V1782      V2597   2.084   1_545  T
C1783      O2589   1.266   1_545  A
C1783      C2200   1.496   1_545  S
C1784      O2590   1.266   1_545  A
C1784      C2373   1.483       .  S
C1785      C2193   1.493       .  S
C1786      C2183   1.488       .  S
O1787      V1795   1.909       .  S
O1787      C1797   1.266       .  A
O1788      V1795   1.908       .  S
O1788      C1798   1.267       .  A
O1789      V1795   1.903       .  S
O1789      C1799   1.265       .  A
O1790      V1795   1.899       .  S
O1790      C1800   1.263       .  A
O1791      V1796   1.914       .  S
O1791      C1800   1.268       .  A
O1792      V1796   1.913       .  S
O1792      C1799   1.268       .  A
O1793      V1796   1.905       .  S
O1793      C1798   1.265       .  A
O1794      V1796   1.907       .  S
O1794      C1797   1.265       .  A
V1795      V1796   2.081       .  T
C1797      C2173   1.518       .  S
C1798      C2333   1.490       .  S
C1799      C2190   1.494       .  S
C1800      C2180   1.491       .  S
O1801      C1811   1.264       .  A
O1802      V2625   1.903       .  S
O1802      C1812   1.264       .  A
O1803      V1809   1.909       .  S
O1804      V1809   1.907       .  S
O1805      V1810   1.897       .  S
O1805      C2630   1.264       .  A
O1806      V1810   1.897       .  S
O1806      C2629   1.263       .  A
O1807      C1812   1.266       .  A
O1808      V2626   1.910   1_545  S
O1808      C1811   1.267       .  A
V1809      O2618   1.903   1_545  S
V1810      O2624   1.909       .  S
C1811      C2150   1.488       .  S
C1812      C2143   1.489       .  S
C1813      O2622   1.264   1_545  A
C1813      C2243   1.485       .  S
C1814      O2621   1.264       .  A
C1814      C2163   1.483       .  S
O1815      V1823   1.900       .  S
O1815      C1825   1.264       .  A
O1816      V1823   1.900       .  S
O1816      C1826   1.265   1_655  A
O1817      V1823   1.900       .  S
O1817      C1827   1.265       .  A
O1818      C1828   1.265       .  A
O1819      V1824   1.901       .  S
O1819      C1828   1.266       .  A
O1820      C1827   1.265       .  A
O1821      V1824   1.906       .  S
O1822      V1824   1.901       .  S
C1825      C2213   1.506       .  S
C1827      C2110   1.498       .  S
C1828      C2120   1.497       .  S
O1829      V1837   1.906       .  S
O1829      C1839   1.267       .  A
O1830      V2653   1.906   1_545  S
O1830      C1840   1.265       .  A
O1831      V1837   1.911       .  S
O1831      C2657   1.267       .  A
O1832      V1837   1.912       .  S
O1832      C2658   1.267       .  A
O1833      V1838   1.903       .  S
O1833      C1842   1.265       .  A
O1834      V1838   1.902   1_545  S
O1834      C1841   1.265   1_545  A
O1835      V1838   1.898   1_545  S
O1835      C1840   1.265       .  A
O1836      V2654   1.898       .  S
O1836      C1839   1.264       .  A
V1837      O2646   1.907       .  S
V1837      V2654   2.075       .  T
V1838      O2652   1.901       .  S
V1838      V2653   2.074       .  T
C1839      C2123   1.497       .  S
C1840      C2113   1.501       .  S
C1841      O2647   1.266       .  A
C1841      C2203   1.490       .  S
C1842      O2648   1.266       .  A
C1842      C2100   1.482       .  S
O1843      V1851   1.907       .  S
O1843      C1853   1.266       .  A
O1844      V1851   1.909       .  S
O1844      C1854   1.267       .  A
O1845      V1851   1.907       .  S
O1845      C1855   1.266       .  A
O1846      V1851   1.906       .  S
O1846      C1856   1.265       .  A
O1847      V1852   1.903       .  S
O1847      C1856   1.265       .  A
O1848      V1852   1.906       .  S
O1848      C1855   1.266       .  A
O1849      V1852   1.900       .  S
O1849      C1854   1.264       .  A
O1850      V1852   1.901       .  S
O1850      C1853   1.264       .  A
V1851      V1852   2.086       .  T
C1853      C2140   1.489       .  S
C1854      C2153   1.488       .  S
C1855      C2170   1.491       .  S
C1856      C2090   1.484       .  S
O1857      V1865   1.915       .  S
O1858      V1865   1.911       .  S
O1859      V1865   1.900       .  S
O1859      C2685   1.263       .  A
O1860      C2686   1.265       .  A
O1861      V1866   1.901       .  S
O1861      C1870   1.264   1_545  A
O1862      C1869   1.265   1_545  A
O1863      V1866   1.896       .  S
O1863      C1868   1.262       .  A
O1864      V1866   1.898       .  S
O1864      C1867   1.264   1_545  A
C1867      C2300   1.495       .  S
C1868      C2080   1.515       .  S
C1869      O2675   1.264       .  A
C1869      C2060   1.482       .  S
C1870      O2676   1.265       .  A
C1870      C2070   1.484       .  S
O1871      V1879   1.901       .  S
O1871      C1881   1.264       .  A
O1872      C1882   1.264       .  A
O1873      V1879   1.895       .  S
O1874      V1879   1.884       .  S
O1875      V1880   1.911       .  S
O1875      C1884   1.267       .  A
O1876      V1880   1.905       .  S
O1876      C1883   1.264       .  A
O1877      V1880   1.896       .  S
O1877      C1882   1.264       .  A
O1878      C1881   1.263       .  A
C1881      C2030   1.487       .  S
C1882      C2040   1.490       .  S
C1883      C2050   1.471       .  S
C1884      C2270   1.497       .  S
O1885      V1893   1.908       .  S
O1885      C1895   1.267   1_545  A
O1886      V1893   1.910       .  S
O1886      C1896   1.267   1_545  A
O1887      V1893   1.898       .  S
O1887      C1897   1.264   1_545  A
O1888      V1893   1.903       .  S
O1888      C1898   1.264   1_545  A
O1889      V1894   1.901       .  S
O1889      C2714   1.264       .  A
O1890      V1894   1.904       .  S
O1890      C2713   1.265       .  A
O1891      V1894   1.896       .  S
O1891      C2712   1.263       .  A
O1892      V1894   1.899       .  S
O1892      C2711   1.263       .  A
V1893      V2710   2.086   1_545  T
V1894      V2709   2.085       .  T
C1895      O2708   1.264       .  A
C1895      C2260   1.486       .  S
C1896      O2707   1.264       .  A
C1896      C2023   1.493       .  S
C1897      O2706   1.266       .  A
C1897      C2063   1.483       .  S
C1898      O2705   1.265       .  A
C1898      C2073   1.479       .  S
O1899      V1907   1.905       .  S
O1899      C1909   1.265       .  A
O1900      V1907   1.899       .  S
O1900      C1910   1.262       .  A
O1901      V1907   1.903       .  S
O1901      C1911   1.265       .  A
O1902      V1907   1.902       .  S
O1902      C1912   1.266       .  A
O1903      V1908   1.886       .  S
O1903      C1912   1.259       .  A
O1904      V1908   1.888       .  S
O1904      C1911   1.262       .  A
O1905      V1908   1.909       .  S
O1905      C1910   1.266       .  A
O1906      V1908   1.902       .  S
O1906      C1909   1.264       .  A
V1907      V1908   2.083       .  T
C1909      C2253   1.484       .  S
C1910      C2010   1.478       .  S
C1911      C2033   1.495       .  S
C1912      C2043   1.489       .  S
O1913      C1923   1.267       .  A
O1914      V2737   1.914       .  S
O1914      C1924   1.268       .  A
O1915      V1921   1.894       .  S
O1915      C2741   1.263       .  A
O1916      V1921   1.898       .  S
O1916      C2742   1.264       .  A
O1917      V1922   1.911       .  S
O1918      V1922   1.911       .  S
O1919      C1924   1.265       .  A
O1920      V2738   1.900       .  S
O1920      C1923   1.264       .  A
V1921      O2730   1.912       .  S
V1922      O2736   1.899       .  S
C1923      C1990   1.484       .  S
C1924      C2003   1.494       .  S
C1925      O2731   1.263       .  A
C1925      C2160   1.483       .  S
C1926      O2732   1.264       .  A
C1926      C2083   1.489       .  S
O1927      V1935   1.897       .  S
O1927      C1937   1.264       .  A
O1928      V1935   1.900       .  S
O1928      C1938   1.263       .  A
O1929      C1939   1.266       .  A
O1930      V1935   1.908       .  S
O1930      C1940   1.267       .  A
O1931      C1940   1.265       .  A
O1932      V1936   1.907       .  S
O1932      C1939   1.266       .  A
O1933      V1936   1.895       .  S
O1934      V1936   1.897       .  S
C1937      C2053   1.482       .  S
C1938      C2133   1.474       .  S
C1939      C1970   1.489       .  S
C1940      C1980   1.489       .  S
O1941      V1949   1.904       .  S
O1941      C2767   1.264       .  A
O1942      V1949   1.900       .  S
O1942      C2768   1.265       .  A
O1943      V2765   1.904   1_545  S
O1943      C1953   1.265       .  A
O1944      V1949   1.905       .  S
O1944      C1954   1.265       .  A
O1945      V2766   1.905       .  S
O1945      C1954   1.266       .  A
O1946      V1950   1.912       .  S
O1946      C1953   1.267       .  A
O1947      V1950   1.907       .  S
O1947      C1952   1.266   1_545  A
O1948      V1950   1.904       .  S
O1948      C1951   1.265   1_545  A
V1949      O2759   1.901       .  S
V1949      V2766   2.085       .  T
V1950      O2761   1.906   1_545  S
V1950      V2765   2.085   1_545  T
C1951      O2757   1.264       .  A
C1951      C2103   1.478       .  S
C1952      O2758   1.264       .  A
C1952      C2020   1.496       .  S
C1953      C1973   1.489       .  S
C1954      C1983   1.489       .  S
O1955      V1963   1.904       .  S
O1955      C1965   1.265       .  A
O1956      V1963   1.900       .  S
O1956      C1966   1.264       .  A
O1957      V1963   1.912       .  S
O1957      C1967   1.268       .  A
O1958      V1963   1.911       .  S
O1958      C1968   1.267       .  A
O1959      V1964   1.901       .  S
O1959      C1968   1.264       .  A
O1960      V1964   1.902       .  S
O1960      C1967   1.264       .  A
O1961      V1964   1.903       .  S
O1961      C1966   1.266       .  A
O1962      V1964   1.902       .  S
O1962      C1965   1.265       .  A
V1963      V1964   2.086       .  T
C1965      C2093   1.484       .  S
C1966      C2013   1.485       .  S
C1967      C2000   1.495       .  S
C1968      C1993   1.485       .  S
C1969      C1970   1.414       .  A
C1969      C1974   1.413       .  A
C1969     Br1976   1.931       .  S
C1970      C1971   1.412       .  A
C1971      C1972   1.412       .  A
C1971     Br1978   1.931       .  S
C1972      C1973   1.414       .  A
C1972     Br1977   1.932       .  S
C1973      C1974   1.412       .  A
C1974     Br1975   1.930       .  S
C1979      C1980   1.413       .  A
C1979      C1984   1.411       .  A
C1979     Br1986   1.930       .  S
C1980      C1981   1.414       .  A
C1981      C1982   1.412       .  A
C1981     Br1988   1.933       .  S
C1982      C1983   1.414       .  A
C1982     Br1987   1.933       .  S
C1983      C1984   1.414       .  A
C1984     Br1985   1.933       .  S
C1989      C1990   1.412       .  A
C1989      C1994   1.412       .  A
C1989     Br1996   1.932       .  S
C1990      C1991   1.412       .  A
C1991      C1992   1.411       .  A
C1991     Br1998   1.931       .  S
C1992      C1993   1.411       .  A
C1992     Br1997   1.930       .  S
C1993      C1994   1.412       .  A
C1994     Br1995   1.931       .  S
C1999      C2000   1.414       .  A
C1999      C2004   1.413       .  A
C1999     Br2006   1.932       .  S
C2000      C2001   1.417       .  A
C2001      C2002   1.415       .  A
C2001     Br2008   1.933       .  S
C2002      C2003   1.414       .  A
C2002     Br2007   1.932       .  S
C2003      C2004   1.415       .  A
C2004     Br2005   1.934       .  S
C2009      C2010   1.408       .  A
C2009      C2014   1.410       .  A
C2009     Br2016   1.931       .  S
C2010      C2011   1.408       .  A
C2011      C2012   1.409       .  A
C2011     Br2018   1.927       .  S
C2012      C2013   1.415       .  A
C2012     Br2017   1.934       .  S
C2013      C2014   1.415       .  A
C2014     Br2015   1.931       .  S
C2019      C2836   1.418       .  A
C2019      C2024   1.415       .  A
C2019     Br2026   1.934       .  S
C2020      C2835   1.418   1_565  A
C2020      C2021   1.418       .  A
C2021      C2022   1.409       .  A
C2021     Br2028   1.938       .  S
C2022      C2023   1.415       .  A
C2022     Br2027   1.937       .  S
C2023      C2840   1.415   1_565  A
C2024      C2839   1.415       .  A
C2024     Br2025   1.933       .  S
C2029      C2030   1.414       .  A
C2029      C2034   1.407       .  A
C2029     Br2036   1.939       .  S
C2030      C2031   1.416       .  A
C2031      C2032   1.409       .  A
C2031     Br2038   1.940       .  S
C2032      C2033   1.419       .  A
C2032     Br2037   1.937       .  S
C2033      C2034   1.420       .  A
C2034     Br2035   1.940       .  S
C2039      C2040   1.417       .  A
C2039      C2044   1.408       .  A
C2039     Br2046   1.940       .  S
C2040      C2041   1.418       .  A
C2041      C2042   1.408       .  A
C2041     Br2048   1.936       .  S
C2042      C2043   1.415       .  A
C2042     Br2047   1.939       .  S
C2043      C2044   1.420       .  A
C2044     Br2045   1.941       .  S
C2049      C2054   1.406       .  A
C2049     Br2056   1.926       .  S
C2050      C2051   1.405       .  A
C2051      C2052   1.408       .  A
C2051     Br2058   1.930       .  S
C2052      C2053   1.418       .  A
C2052     Br2057   1.934       .  S
C2054     Br2055   1.933       .  S
C2059      C2876   1.412       .  A
C2059      C2064   1.410       .  A
C2059     Br2066   1.931       .  S
C2060      C2875   1.412       .  A
C2060      C2061   1.411   1_565  A
C2061      C2062   1.408       .  A
C2061     Br2068   1.931       .  S
C2062      C2063   1.413   1_545  A
C2062     Br2067   1.933       .  S
C2063      C2880   1.413       .  A
C2064      C2879   1.411       .  A
C2064     Br2065   1.932       .  S
C2069      C2070   1.413       .  A
C2069      C2074   1.410       .  A
C2069     Br2076   1.931       .  S
C2070      C2887   1.413   1_565  A
C2071      C2886   1.412       .  A
C2071      C2072   1.409       .  A
C2071     Br2078   1.932       .  S
C2072      C2889   1.410       .  A
C2072     Br2077   1.931       .  S
C2073      C2888   1.410   1_565  A
C2073      C2074   1.410       .  A
C2074     Br2075   1.933       .  S
C2079      C2084   1.413       .  A
C2079     Br2086   1.938       .  S
C2080      C2081   1.432       .  A
C2081      C2082   1.414       .  A
C2081     Br2088   1.939       .  S
C2082      C2083   1.406       .  A
C2082     Br2087   1.937       .  S
C2084     Br2085   1.938       .  S
C2089      C2090   1.410       .  A
C2089      C2094   1.409       .  A
C2089     Br2096   1.932       .  S
C2090      C2091   1.414       .  A
C2091      C2092   1.412       .  A
C2091     Br2098   1.932       .  S
C2092      C2093   1.412       .  A
C2092     Br2097   1.932       .  S
C2093      C2094   1.413       .  A
C2094     Br2095   1.932       .  S
C2099      C2100   1.411       .  A
C2099      C2104   1.409   1_565  A
C2099     Br2106   1.925   1_565  S
C2100      C2917   1.410       .  A
C2101      C2916   1.410       .  A
C2101      C2102   1.410       .  A
C2101     Br2108   1.926       .  S
C2102      C2919   1.411       .  A
C2102     Br2107   1.930       .  S
C2103      C2918   1.410       .  A
C2103      C2104   1.409   1_565  A
C2104     Br2105   1.930       .  S
C2109      C2110   1.418       .  A
C2109      C2114   1.414       .  A
C2109     Br2116   1.937       .  S
C2110      C2111   1.417       .  A
C2111      C2112   1.410       .  A
C2111     Br2118   1.941       .  S
C2112      C2113   1.420       .  A
C2112     Br2117   1.941       .  S
C2113      C2114   1.421       .  A
C2114     Br2115   1.939       .  S
C2119      C2120   1.418       .  A
C2119      C2124   1.411       .  A
C2119     Br2126   1.939       .  S
C2120      C2121   1.418       .  A
C2121      C2122   1.413       .  A
C2121     Br2128   1.937       .  S
C2122      C2123   1.420       .  A
C2122     Br2127   1.939       .  S
C2123      C2124   1.417       .  A
C2124     Br2125   1.938       .  S
C2129      C2134   1.410       .  A
C2129     Br2136   1.927       .  S
C2130      C2131   1.411       .  A
C2131      C2132   1.405       .  A
C2131     Br2138   1.925       .  S
C2132      C2133   1.408       .  A
C2132     Br2137   1.934       .  S
C2134     Br2135   1.932       .  S
C2139      C2140   1.415       .  A
C2139      C2144   1.411       .  A
C2139     Br2146   1.934       .  S
C2140      C2141   1.413       .  A
C2141      C2142   1.412       .  A
C2141     Br2148   1.933       .  S
C2142      C2143   1.415       .  A
C2142     Br2147   1.933       .  S
C2143      C2144   1.412       .  A
C2144     Br2145   1.933       .  S
C2149      C2150   1.412       .  A
C2149      C2154   1.412       .  A
C2149     Br2156   1.932       .  S
C2150      C2151   1.415       .  A
C2151      C2152   1.411       .  A
C2151     Br2158   1.934       .  S
C2152      C2153   1.413       .  A
C2152     Br2157   1.933       .  S
C2153      C2154   1.415       .  A
C2154     Br2155   1.933       .  S
C2159      C2164   1.412       .  A
C2159     Br2166   1.931       .  S
C2160      C2977   1.411       .  A
C2161      C2976   1.410       .  A
C2161      C2162   1.407       .  A
C2161     Br2168   1.934       .  S
C2162      C2979   1.414       .  A
C2162     Br2167   1.934       .  S
C2163      C2978   1.413       .  A
C2164     Br2165   1.931   1_545  S
C2169      C2170   1.408       .  A
C2169      C2174   1.415   1_556  A
C2169     Br2176   1.936       .  S
C2170      C2171   1.408       .  A
C2171      C2172   1.416   1_556  A
C2171     Br2178   1.938       .  S
C2172      C2173   1.431       .  A
C2172     Br2177   1.938       .  S
C2173      C2174   1.429       .  A
C2174     Br2175   1.937       .  S
C2179      C2180   1.416       .  A
C2179      C2184   1.413       .  A
C2179     Br2186   1.933       .  S
C2180      C2181   1.413       .  A
C2181      C2182   1.411       .  A
C2181     Br2188   1.931       .  S
C2182      C2183   1.413       .  A
C2182     Br2187   1.934       .  S
C2183      C2184   1.412       .  A
C2184     Br2185   1.931       .  S
C2189      C2190   1.415       .  A
C2189      C2194   1.413       .  A
C2189     Br2196   1.932       .  S
C2190      C2191   1.415       .  A
C2191      C2192   1.415       .  A
C2191     Br2198   1.933       .  S
C2192      C2193   1.415       .  A
C2192     Br2197   1.932       .  S
C2193      C2194   1.413       .  A
C2194     Br2195   1.932       .  S
C2199      C3016   1.420       .  A
C2199      C2204   1.412   1_554  A
C2199     Br2206   1.934       .  S
C2200      C3015   1.417       .  A
C2200      C2201   1.419       .  A
C2201      C2202   1.412   1_554  A
C2201     Br2208   1.936       .  S
C2202      C2203   1.413       .  A
C2202     Br2207   1.935       .  S
C2203      C3020   1.413       .  A
C2204      C3019   1.411       .  A
C2204     Br2205   1.934       .  S
C2209      C2214   1.412   1_554  A
C2209     Br2216   1.937       .  S
C2210      C2211   1.406   1_655  A
C2211      C2212   1.410   1_554  A
C2211     Br2218   1.936       .  S
C2212      C2213   1.426   1_455  A
C2212     Br2217   1.939       .  S
C2214     Br2215   1.938       .  S
C2219      C2224   1.412       .  A
C2219     Br2226   1.934       .  S
C2220      C2221   1.414       .  A
C2221      C2222   1.416       .  A
C2221     Br2228   1.932       .  S
C2222      C2223   1.417       .  A
C2222     Br2227   1.933       .  S
C2224     Br2225   1.933       .  S
C2229      C2234   1.412       .  A
C2229     Br2236   1.935       .  S
C2230      C2231   1.414       .  A
C2231      C2232   1.412       .  A
C2231     Br2238   1.935       .  S
C2232      C2233   1.415       .  A
C2232     Br2237   1.931       .  S
C2234     Br2235   1.935       .  S
C2239      C2244   1.410   1_554  A
C2239     Br2246   1.931       .  S
C2240      C2241   1.413   1_565  A
C2241      C2242   1.412   1_554  A
C2241     Br2248   1.931       .  S
C2242      C2243   1.411       .  A
C2242     Br2247   1.932       .  S
C2244     Br2245   1.932       .  S
C2249      C2250   1.412       .  A
C2249      C2254   1.411       .  A
C2249     Br2256   1.931       .  S
C2250      C2251   1.413       .  A
C2251      C2252   1.409       .  A
C2251     Br2258   1.933       .  S
C2252      C2253   1.411       .  A
C2252     Br2257   1.928       .  S
C2253      C2254   1.413       .  A
C2254     Br2255   1.933       .  S
C2259      C3076   1.414       .  A
C2259      C2264   1.412       .  A
C2259     Br2266   1.933       .  S
C2260      C3075   1.414       .  A
C2260      C2261   1.411   1_565  A
C2261      C2262   1.410       .  A
C2261     Br2268   1.933       .  S
C2262      C2263   1.414   1_545  A
C2262     Br2267   1.933       .  S
C2263      C3080   1.413       .  A
C2264      C3079   1.413       .  A
C2264     Br2265   1.932       .  S
C2269      C2270   1.416       .  A
C2269      C2274   1.414       .  A
C2269     Br2276   1.938       .  S
C2271      C2272   1.408       .  A
C2271     Br2278   1.943       .  S
C2272     Br2277   1.940       .  S
C2273      C2274   1.426       .  A
C2274     Br2275   1.940       .  S
C2279      C2280   1.413       .  A
C2279      C2284   1.409       .  A
C2279     Br2286   1.932       .  S
C2280      C2281   1.415       .  A
C2281      C2282   1.408       .  A
C2281     Br2288   1.927       .  S
C2282      C2283   1.409       .  A
C2282     Br2287   1.934       .  S
C2283      C2284   1.411       .  A
C2284     Br2285   1.932       .  S
C2289      C2290   1.413       .  A
C2289      C2294   1.410       .  A
C2289     Br2296   1.933       .  S
C2290      C2291   1.412       .  A
C2291      C2292   1.409       .  A
C2291     Br2298   1.928       .  S
C2292      C2293   1.410       .  A
C2292     Br2297   1.933       .  S
C2293      C2294   1.412       .  A
C2294     Br2295   1.933       .  S
C2299      C3116   1.416       .  A
C2299      C2304   1.417       .  A
C2299     Br2306   1.932       .  S
C2300      C3115   1.415       .  A
C2301      C2302   1.411       .  A
C2301     Br2308   1.935   1_565  S
C2302     Br2307   1.934   1_565  S
C2303      C3120   1.416       .  A
C2304      C3119   1.414       .  A
C2304     Br2305   1.932       .  S
C2309      C2310   1.413   1_545  A
C2309      C2314   1.410       .  A
C2309     Br2316   1.933       .  S
C2310      C3127   1.411       .  A
C2311      C3126   1.412       .  A
C2311      C2312   1.409       .  A
C2311     Br2318   1.934       .  S
C2312      C3129   1.413       .  A
C2312     Br2317   1.933       .  S
C2313      C3128   1.414       .  A
C2313      C2314   1.413   1_565  A
C2314     Br2315   1.933       .  S
C2319      C3136   1.413       .  A
C2319      C2324   1.410       .  A
C2319     Br2326   1.934       .  S
C2320      C3135   1.413       .  A
C2320      C2321   1.411   1_565  A
C2321      C2322   1.410       .  A
C2321     Br2328   1.931       .  S
C2322      C2323   1.412   1_545  A
C2322     Br2327   1.932       .  S
C2323      C3140   1.410       .  A
C2324      C3139   1.414       .  A
C2324     Br2325   1.934       .  S
C2329      C2330   1.413       .  A
C2329      C2334   1.412       .  A
C2329     Br2336   1.933       .  S
C2330      C2331   1.413       .  A
C2331      C2332   1.413       .  A
C2331     Br2338   1.932       .  S
C2332      C2333   1.414       .  A
C2332     Br2337   1.932       .  S
C2333      C2334   1.414       .  A
C2334     Br2335   1.933       .  S
C2339      C2340   1.405       .  A
C2339      C2344   1.411       .  A
C2339     Br2346   1.933       .  S
C2340      C2341   1.406       .  A
C2341      C2342   1.413       .  A
C2341     Br2348   1.935       .  S
C2342      C2343   1.429       .  A
C2342     Br2347   1.938       .  S
C2343      C2344   1.426       .  A
C2344     Br2345   1.936       .  S
C2349      C2350   1.414       .  A
C2349      C2354   1.411       .  A
C2349     Br2356   1.934       .  S
C2350      C2351   1.415       .  A
C2351      C2352   1.413       .  A
C2351     Br2358   1.933       .  S
C2352      C2353   1.415       .  A
C2352     Br2357   1.933       .  S
C2353      C2354   1.415       .  A
C2354     Br2355   1.934       .  S
C2359      C2360   1.414       .  A
C2359      C2364   1.413       .  A
C2359     Br2366   1.932       .  S
C2360      C2361   1.413       .  A
C2361      C2362   1.411       .  A
C2361     Br2368   1.933       .  S
C2362      C2363   1.413       .  A
C2362     Br2367   1.933       .  S
C2363      C2364   1.414       .  A
C2364     Br2365   1.932       .  S
C2369      C2370   1.412       .  A
C2369      C2374   1.411       .  A
C2369     Br2376   1.931       .  S
C2370      C3187   1.411   1_545  A
C2371      C3186   1.412       .  A
C2371      C2372   1.410       .  A
C2371     Br2378   1.933       .  S
C2372      C3189   1.412       .  A
C2372     Br2377   1.932       .  S
C2373      C3188   1.412   1_545  A
C2373      C2374   1.413       .  A
C2374     Br2375   1.932       .  S
C2379      C3196   1.410       .  A
C2379      C2384   1.411       .  A
C2379     Br2386   1.930       .  S
C2380      C3195   1.412       .  A
C2380      C2381   1.412   1_565  A
C2381      C2382   1.410       .  A
C2381     Br2388   1.931       .  S
C2382      C2383   1.411   1_545  A
C2382     Br2387   1.932       .  S
C2383      C3200   1.411       .  A
C2384      C3199   1.413       .  A
C2384     Br2385   1.931       .  S
C2389      C2394   1.416       .  A
C2389     Br2396   1.942       .  S
C2390      C2391   1.426       .  A
C2391      C2392   1.414       .  A
C2391     Br2398   1.942       .  S
C2392      C2393   1.420       .  A
C2392     Br2397   1.942       .  S
C2394     Br2395   1.945       .  S
C2399      C2400   1.428       .  A
C2399      C2404   1.412       .  A
C2399     Br2406   1.939       .  S
C2401      C2402   1.412       .  A
C2401     Br2408   1.938       .  S
C2402     Br2407   1.936       .  S
C2403      C2404   1.407       .  A
C2404     Br2405   1.937       .  S
C2409      C2414   1.414       .  A
C2409     Br2416   1.930       .  S
C2410      C2411   1.414       .  A
C2411      C2412   1.413       .  A
C2411     Br2418   1.930       .  S
C2412      C2413   1.411       .  A
C2412     Br2417   1.930       .  S
C2414     Br2415   1.931       .  S
C2419      C2424   1.413       .  A
C2419     Br2426   1.926       .  S
C2420      C2421   1.415       .  A
C2421      C2422   1.413       .  A
C2421     Br2428   1.932       .  S
C2422      C2423   1.413       .  A
C2422     Br2427   1.933       .  S
C2424     Br2425   1.933       .  S
C2429      C3246   1.412       .  A
C2429      C2434   1.414       .  A
C2429     Br2436   1.932       .  S
C2430      C3245   1.412       .  A
C2431      C2432   1.411       .  A
C2431     Br2438   1.932   1_565  S
C2432     Br2437   1.931   1_565  S
C2433      C3250   1.414       .  A
C2434      C3249   1.415       .  A
C2434     Br2435   1.931       .  S
C2439      C2440   1.410   1_545  A
C2439      C2444   1.414       .  A
C2439     Br2446   1.935       .  S
C2441      C2442   1.414       .  A
C2441     Br2448   1.936       .  S
C2442     Br2447   1.937       .  S
C2443      C2444   1.425   1_565  A
C2444     Br2445   1.936       .  S
O2449      V2457   1.906       .  S
O2450      V2457   1.906       .  S
O2451      V2457   1.912       .  S
O2451      C2461   1.266       .  A
O2452      C2462   1.267       .  A
O2453      V2458   1.913       .  S
O2455      V2458   1.910       .  S
O2455      C2460   1.267       .  A
O2456      V2458   1.910       .  S
O2456      C2459   1.266       .  A
C2459      C3259   1.513       .  S
C2460      C3249   1.491       .  S
C2461      C3229   1.488       .  S
C2462      C3239   1.494       .  S
O2463      V2471   1.906       .  S
O2464      V2471   1.906       .  S
O2465      V2471   1.908       .  S
O2466      V2471   1.908       .  S
O2467      V2472   1.909       .  S
O2467      C2476   1.266       .  A
O2468      V2472   1.916       .  S
O2468      C2475   1.268       .  A
O2469      V2472   1.903       .  S
O2469      C2474   1.265       .  A
O2470      V2472   1.904       .  S
O2470      C2473   1.265       .  A
C2473      C3216   1.511       .  S
C2474      C3209   1.490       .  S
O2477      V2485   1.907       .  S
O2477      C2487   1.266       .  A
O2478      C2488   1.265       .  A
O2479      V2485   1.906       .  S
O2479      C2489   1.265       .  A
O2480      V2485   1.906       .  S
O2480      C2490   1.266       .  A
O2481      V2486   1.901       .  S
O2482      V2486   1.899       .  S
O2483      V2486   1.907       .  S
O2483      C2488   1.266       .  A
O2484      C2487   1.267       .  A
C2487      C3176   1.495       .  S
C2488      C3166   1.492       .  S
C2489      C3186   1.483       .  S
C2490      C3199   1.484       .  S
O2491      V2499   1.907       .  S
O2491      C2501   1.266       .  A
O2492      V2499   1.908       .  S
O2492      C2502   1.266       .  A
O2493      V2499   1.906       .  S
O2493      C2503   1.265       .  A
O2494      V2499   1.905       .  S
O2494      C2504   1.265       .  A
O2495      V2500   1.906       .  S
O2495      C2504   1.265       .  A
O2496      V2500   1.905       .  S
O2496      C2503   1.265       .  A
O2497      V2500   1.908       .  S
O2497      C2502   1.266       .  A
O2498      V2500   1.906       .  S
O2498      C2501   1.266       .  A
V2499      V2500   2.086       .  T
C2501      C3169   1.495       .  S
C2502      C3179   1.495       .  S
C2503      C3156   1.481       .  S
C2504      C3146   1.485       .  S
O2505      V2513   1.899       .  S
O2505      C2515   1.264       .  A
O2506      C2516   1.264       .  A
O2507      V2513   1.905       .  S
O2507      C2517   1.266       .  A
O2508      V2513   1.905       .  S
O2508      C2518   1.265       .  A
O2509      V2514   1.904       .  S
O2510      V2514   1.909       .  S
O2511      V2514   1.906       .  S
C2515      C3139   1.484       .  S
C2516      C3126   1.479       .  S
C2517      C3119   1.493       .  S
C2518      C3256   1.492       .  S
O2519      C2529   1.263       .  A
O2520      V2527   1.897       .  S
O2520      C2530   1.264       .  A
O2521      V2527   1.902       .  S
O2522      V2527   1.896       .  S
O2523      V2528   1.906       .  S
O2523      C2532   1.264       .  A
O2524      V2528   1.908       .  S
O2524      C2531   1.266       .  A
O2525      C2530   1.265       .  A
O2526      V2528   1.905       .  S
O2526      C2529   1.266       .  A
C2529      C3106   1.484       .  S
C2530      C3096   1.484       .  S
C2531      C3219   1.483       .  S
C2532      C3089   1.510       .  S
O2533      V2541   1.911       .  S
O2534      V2541   1.908       .  S
O2535      V2541   1.895       .  S
O2536      V2541   1.898       .  S
O2537      V2542   1.899       .  S
O2537      C2546   1.265       .  A
O2538      V2542   1.903       .  S
O2538      C2545   1.265       .  A
O2539      V2542   1.898       .  S
O2539      C2544   1.263       .  A
O2540      V2542   1.899       .  S
O2540      C2543   1.264       .  A
C2543      C3079   1.489       .  S
C2544      C3196   1.482       .  S
C2545      C3129   1.482       .  S
C2546      C3136   1.482       .  S
O2547      V2555   1.900       .  S
O2547      C2557   1.264       .  A
O2548      V2555   1.899       .  S
O2548      C2558   1.264       .  A
O2549      V2555   1.901       .  S
O2549      C2559   1.265       .  A
O2550      V2555   1.896       .  S
O2550      C2560   1.263       .  A
O2551      V2556   1.903       .  S
O2551      C2560   1.265       .  A
O2552      V2556   1.899       .  S
O2552      C2559   1.264       .  A
O2553      V2556   1.908       .  S
O2553      C2558   1.266       .  A
O2554      V2556   1.907       .  S
O2554      C2557   1.266       .  A
V2555      V2556   2.083       .  T
C2557      C3066   1.482       .  S
C2558      C3159   1.504       .  S
C2559      C3109   1.481       .  S
C2560      C3099   1.479       .  S
O2561      V2569   1.908       .  S
O2562      V2569   1.906       .  S
O2564      V2569   1.905       .  S
O2565      C2574   1.266       .  A
O2566      V2570   1.905       .  S
O2566      C2573   1.266       .  A
O2567      V2570   1.907       .  S
O2567      C2572   1.266       .  A
O2568      V2570   1.906       .  S
O2568      C2571   1.265       .  A
C2571      C3056   1.483       .  S
C2572      C3246   1.488       .  S
C2573      C3046   1.489       .  S
C2574      C3036   1.494       .  S
O2575      V2583   1.905       .  S
O2576      V2583   1.905       .  S
O2577      V2583   1.905       .  S
O2577      C2587   1.265       .  A
O2578      V2583   1.907       .  S
O2578      C2588   1.266       .  A
O2579      V2584   1.902       .  S
O2580      V2584   1.900       .  S
O2581      V2584   1.909       .  S
O2581      C2586   1.267       .  A
O2582      V2584   1.906       .  S
O2582      C2585   1.266       .  A
C2585      C3049   1.491       .  S
C2586      C3039   1.493       .  S
C2587      C3026   1.481       .  S
O2589      V2597   1.905       .  S
O2590      V2597   1.904       .  S
O2591      C2601   1.266       .  A
O2592      V2597   1.901       .  S
O2592      C2602   1.264       .  A
O2593      C2602   1.267       .  A
O2594      V2598   1.912       .  S
O2594      C2601   1.268       .  A
O2595      V2598   1.901       .  S
O2595      C2600   1.264       .  A
O2596      V2598   1.902       .  S
O2596      C2599   1.264       .  A
C2599      C3016   1.502       .  S
C2600      C3189   1.484       .  S
C2601      C3009   1.494       .  S
C2602      C2999   1.489       .  S
O2603      V2611   1.910       .  S
O2603      C2613   1.267       .  A
O2604      V2611   1.910       .  S
O2604      C2614   1.267       .  A
O2605      V2611   1.906       .  S
O2605      C2615   1.265       .  A
O2606      V2611   1.904       .  S
O2606      C2616   1.264       .  A
O2607      V2612   1.914       .  S
O2607      C2616   1.268       .  A
O2608      V2612   1.914       .  S
O2608      C2615   1.268       .  A
O2609      V2612   1.902       .  S
O2609      C2614   1.264       .  A
O2610      V2612   1.901       .  S
O2610      C2613   1.263       .  A
V2611      V2612   2.081       .  T
C2613      C2989   1.515       .  S
C2614      C3149   1.488       .  S
C2615      C3006   1.497       .  S
C2616      C2996   1.493       .  S
O2617      C2627   1.265       .  A
O2618      C2628   1.264       .  A
O2619      V2625   1.909       .  S
O2620      V2625   1.908       .  S
O2621      V2626   1.900   1_545  S
O2622      V2626   1.900       .  S
O2623      C2628   1.268       .  A
O2624      C2627   1.267       .  A
C2627      C2966   1.488       .  S
C2628      C2959   1.494       .  S
C2629      C3059   1.482       .  S
C2630      C2979   1.484       .  S
O2631      V2639   1.901       .  S
O2631      C2641   1.264       .  A
O2632      V2639   1.901       .  S
O2632      C2642   1.265   1_655  A
O2633      V2639   1.899       .  S
O2633      C2643   1.265       .  A
O2634      C2644   1.265       .  A
O2635      V2640   1.902       .  S
O2635      C2644   1.266       .  A
O2636      C2643   1.266       .  A
O2637      V2640   1.910       .  S
O2638      V2640   1.904       .  S
C2641      C3029   1.509       .  S
C2643      C2926   1.498       .  S
C2644      C2936   1.495       .  S
O2645      V2653   1.905       .  S
O2645      C2655   1.267       .  A
O2646      C2656   1.266       .  A
O2647      V2653   1.906       .  S
O2648      V2653   1.909       .  S
O2649      V2654   1.903       .  S
O2649      C2658   1.264       .  A
O2650      V2654   1.901       .  S
O2650      C2657   1.265       .  A
O2651      V2654   1.898       .  S
O2651      C2656   1.265       .  A
O2652      C2655   1.264       .  A
C2655      C2939   1.494       .  S
C2656      C2929   1.498       .  S
C2657      C3019   1.489       .  S
C2658      C2916   1.484       .  S
O2659      V2667   1.907       .  S
O2659      C2669   1.266       .  A
O2660      V2667   1.908       .  S
O2660      C2670   1.266       .  A
O2661      V2667   1.909       .  S
O2661      C2671   1.267       .  A
O2662      V2667   1.907       .  S
O2662      C2672   1.265       .  A
O2663      V2668   1.900       .  S
O2663      C2672   1.264       .  A
O2664      V2668   1.901       .  S
O2664      C2671   1.264       .  A
O2665      V2668   1.907       .  S
O2665      C2670   1.266       .  A
O2666      V2668   1.907       .  S
O2666      C2669   1.266       .  A
V2667      V2668   2.085       .  T
C2669      C2956   1.495       .  S
C2670      C2969   1.490       .  S
C2671      C2986   1.488       .  S
C2672      C2906   1.483       .  S
O2673      V2681   1.918       .  S
O2674      V2681   1.915       .  S
O2675      V2681   1.901       .  S
O2677      V2682   1.902       .  S
O2677      C2686   1.265       .  A
O2678      C2685   1.266       .  A
O2679      V2682   1.898       .  S
O2679      C2684   1.262       .  A
O2680      V2682   1.899       .  S
O2680      C2683   1.265       .  A
C2683      C3116   1.495       .  S
C2684      C2896   1.512       .  S
C2685      C2876   1.483       .  S
C2686      C2886   1.483       .  S
O2687      V2695   1.902       .  S
O2687      C2697   1.265       .  A
O2688      C2698   1.264       .  A
O2689      V2695   1.896       .  S
O2690      V2695   1.883       .  S
O2691      V2696   1.917       .  S
O2691      C2700   1.268       .  A
O2692      V2696   1.907       .  S
O2692      C2699   1.265       .  A
O2693      V2696   1.889       .  S
O2693      C2698   1.262       .  A
O2694      C2697   1.261       .  A
C2697      C2846   1.482       .  S
C2698      C2856   1.489       .  S
C2699      C2866   1.473       .  S
C2700      C3086   1.501       .  S
O2701      V2709   1.911       .  S
O2701      C2711   1.268       .  A
O2702      V2709   1.914       .  S
O2702      C2712   1.268       .  A
O2703      V2709   1.899       .  S
O2703      C2713   1.264       .  A
O2704      V2709   1.902       .  S
O2704      C2714   1.264       .  A
O2705      V2710   1.901       .  S
O2706      V2710   1.906       .  S
O2707      V2710   1.896       .  S
O2708      V2710   1.902       .  S
C2711      C3076   1.488       .  S
C2712      C2839   1.496       .  S
C2713      C2879   1.481       .  S
C2714      C2889   1.478       .  S
O2715      V2723   1.910       .  S
O2715      C2725   1.266       .  A
O2716      V2723   1.901       .  S
O2716      C2726   1.263       .  A
O2717      V2723   1.901       .  S
O2717      C2727   1.264       .  A
O2718      V2723   1.901       .  S
O2718      C2728   1.266       .  A
O2719      V2724   1.884       .  S
O2719      C2728   1.259       .  A
O2720      V2724   1.884       .  S
O2720      C2727   1.261       .  A
O2721      V2724   1.908       .  S
O2721      C2726   1.266       .  A
O2722      V2724   1.900       .  S
O2722      C2725   1.264       .  A
V2723      V2724   2.083       .  T
C2725      C3069   1.485       .  S
C2726      C2826   1.478       .  S
C2727      C2849   1.490       .  S
C2728      C2859   1.490       .  S
O2729      C2739   1.267       .  A
O2730      C2740   1.267       .  A
O2731      V2737   1.894       .  S
O2732      V2737   1.898       .  S
O2733      V2738   1.907       .  S
O2734      V2738   1.909       .  S
O2735      C2740   1.266       .  A
O2736      C2739   1.263   1_545  A
C2739      C2806   1.486       .  S
C2740      C2819   1.494       .  S
C2741      C2976   1.482       .  S
C2742      C2899   1.489       .  S
O2743      V2751   1.899       .  S
O2743      C2753   1.264       .  A
O2744      V2751   1.901       .  S
O2744      C2754   1.264       .  A
O2745      C2755   1.265       .  A
O2746      V2751   1.908       .  S
O2746      C2756   1.266       .  A
O2747      C2756   1.266       .  A
O2748      V2752   1.908       .  S
O2748      C2755   1.266       .  A
O2749      V2752   1.894       .  S
O2750      V2752   1.896       .  S
C2753      C2869   1.484       .  S
C2754      C2949   1.476       .  S
C2755      C2786   1.487       .  S
C2756      C2796   1.491       .  S
O2757      V2765   1.901       .  S
O2758      V2765   1.897       .  S
O2759      C2769   1.264       .  A
O2760      V2765   1.910       .  S
O2760      C2770   1.266       .  A
O2761      C2770   1.266       .  A
O2762      V2766   1.912       .  S
O2762      C2769   1.267       .  A
O2763      V2766   1.907       .  S
O2763      C2768   1.266       .  A
O2764      V2766   1.905       .  S
O2764      C2767   1.265       .  A
C2767      C2919   1.480       .  S
C2768      C2836   1.497       .  S
C2769      C2789   1.488       .  S
C2770      C2799   1.493       .  S
O2771      V2779   1.906       .  S
O2771      C2781   1.265       .  A
O2772      V2779   1.900       .  S
O2772      C2782   1.265       .  A
O2773      V2779   1.909       .  S
O2773      C2783   1.267       .  A
O2774      V2779   1.908       .  S
O2774      C2784   1.266       .  A
O2775      V2780   1.907       .  S
O2775      C2784   1.266       .  A
O2776      V2780   1.907       .  S
O2776      C2783   1.266       .  A
O2777      V2780   1.904       .  S
O2777      C2782   1.265       .  A
O2778      V2780   1.901       .  S
O2778      C2781   1.265       .  A
V2779      V2780   2.086       .  T
C2781      C2909   1.483       .  S
C2782      C2829   1.487       .  S
C2783      C2816   1.494       .  S
C2784      C2809   1.487       .  S
C2785      C2786   1.413       .  A
C2785      C2790   1.413       .  A
C2785     Br2792   1.931       .  S
C2786      C2787   1.411       .  A
C2787      C2788   1.411       .  A
C2787     Br2794   1.932       .  S
C2788      C2789   1.414       .  A
C2788     Br2793   1.933       .  S
C2789      C2790   1.412       .  A
C2790     Br2791   1.930       .  S
C2795      C2796   1.413       .  A
C2795      C2800   1.413       .  A
C2795     Br2802   1.931       .  S
C2796      C2797   1.413       .  A
C2797      C2798   1.413       .  A
C2797     Br2804   1.933       .  S
C2798      C2799   1.415       .  A
C2798     Br2803   1.933       .  S
C2799      C2800   1.415       .  A
C2800     Br2801   1.932       .  S
C2805      C2806   1.413       .  A
C2805      C2810   1.411       .  A
C2805     Br2812   1.933       .  S
C2806      C2807   1.412       .  A
C2807      C2808   1.412       .  A
C2807     Br2814   1.931       .  S
C2808      C2809   1.412       .  A
C2808     Br2813   1.930       .  S
C2809      C2810   1.412       .  A
C2810     Br2811   1.932       .  S
C2815      C2816   1.414       .  A
C2815      C2820   1.413       .  A
C2815     Br2822   1.932       .  S
C2816      C2817   1.416       .  A
C2817      C2818   1.415       .  A
C2817     Br2824   1.933       .  S
C2818      C2819   1.414       .  A
C2818     Br2823   1.932       .  S
C2819      C2820   1.414       .  A
C2820     Br2821   1.933       .  S
C2825      C2826   1.408       .  A
C2825      C2830   1.412       .  A
C2825     Br2832   1.931       .  S
C2826      C2827   1.407       .  A
C2827      C2828   1.408       .  A
C2827     Br2834   1.926       .  S
C2828      C2829   1.415       .  A
C2828     Br2833   1.934       .  S
C2829      C2830   1.416       .  A
C2830     Br2831   1.931       .  S
C2835      C2840   1.414       .  A
C2835     Br2842   1.935       .  S
C2836      C2837   1.417       .  A
C2837      C2838   1.409       .  A
C2837     Br2844   1.938       .  S
C2838      C2839   1.417       .  A
C2838     Br2843   1.937       .  S
C2840     Br2841   1.934       .  S
C2845      C2846   1.412       .  A
C2845      C2850   1.406       .  A
C2845     Br2852   1.938       .  S
C2846      C2847   1.416       .  A
C2847      C2848   1.407       .  A
C2847     Br2854   1.940       .  S
C2848      C2849   1.417       .  A
C2848     Br2853   1.937       .  S
C2849      C2850   1.420       .  A
C2850     Br2851   1.940       .  S
C2855      C2856   1.417       .  A
C2855      C2860   1.408       .  A
C2855     Br2862   1.942       .  S
C2856      C2857   1.419       .  A
C2857      C2858   1.408       .  A
C2857     Br2864   1.940       .  S
C2858      C2859   1.416       .  A
C2858     Br2863   1.940       .  S
C2859      C2860   1.421       .  A
C2860     Br2861   1.943       .  S
C2865      C2870   1.407       .  A
C2865     Br2872   1.927       .  S
C2866      C2867   1.406       .  A
C2867      C2868   1.408       .  A
C2867     Br2874   1.930       .  S
C2868      C2869   1.418       .  A
C2868     Br2873   1.934       .  S
C2870     Br2871   1.934       .  S
C2875      C2880   1.411       .  A
C2875     Br2882   1.932       .  S
C2876      C2877   1.412       .  A
C2877      C2878   1.409       .  A
C2877     Br2884   1.928       .  S
C2878      C2879   1.411       .  A
C2878     Br2883   1.933       .  S
C2880     Br2881   1.931       .  S
C2885      C2886   1.413       .  A
C2885      C2890   1.409       .  A
C2885     Br2892   1.929       .  S
C2887      C2888   1.410       .  A
C2887     Br2894   1.932       .  S
C2888     Br2893   1.931       .  S
C2889      C2890   1.409       .  A
C2890     Br2891   1.932       .  S
C2895      C2900   1.414       .  A
C2895     Br2902   1.937       .  S
C2896      C2897   1.430       .  A
C2897      C2898   1.414       .  A
C2897     Br2904   1.939       .  S
C2898      C2899   1.408       .  A
C2898     Br2903   1.937       .  S
C2900     Br2901   1.938       .  S
C2905      C2906   1.411       .  A
C2905      C2910   1.408       .  A
C2905     Br2912   1.932       .  S
C2906      C2907   1.414       .  A
C2907      C2908   1.412       .  A
C2907     Br2914   1.932       .  S
C2908      C2909   1.412       .  A
C2908     Br2913   1.931       .  S
C2909      C2910   1.412       .  A
C2910     Br2911   1.932       .  S
C2915      C2916   1.411       .  A
C2915      C2920   1.410       .  A
C2915     Br2922   1.924       .  S
C2917      C2918   1.409       .  A
C2917     Br2924   1.925       .  S
C2918     Br2923   1.930       .  S
C2919      C2920   1.409       .  A
C2920     Br2921   1.930       .  S
C2925      C2926   1.418       .  A
C2925      C2930   1.415       .  A
C2925     Br2932   1.934       .  S
C2926      C2927   1.418       .  A
C2927      C2928   1.409       .  A
C2927     Br2934   1.940       .  S
C2928      C2929   1.417       .  A
C2928     Br2933   1.940       .  S
C2929      C2930   1.419       .  A
C2930     Br2931   1.936       .  S
C2935      C2936   1.416       .  A
C2935      C2940   1.410       .  A
C2935     Br2942   1.937       .  S
C2936      C2937   1.417       .  A
C2937      C2938   1.413       .  A
C2937     Br2944   1.934       .  S
C2938      C2939   1.418       .  A
C2938     Br2943   1.936       .  S
C2939      C2940   1.416       .  A
C2940     Br2941   1.936       .  S
C2945      C2950   1.410       .  A
C2945     Br2952   1.925       .  S
C2946      C2947   1.412       .  A
C2947      C2948   1.406       .  A
C2947     Br2954   1.923       .  S
C2948      C2949   1.409       .  A
C2948     Br2953   1.935       .  S
C2950     Br2951   1.933       .  S
C2955      C2956   1.417       .  A
C2955      C2960   1.413       .  A
C2955     Br2962   1.934       .  S
C2956      C2957   1.415       .  A
C2957      C2958   1.413       .  A
C2957     Br2964   1.934       .  S
C2958      C2959   1.416       .  A
C2958     Br2963   1.934       .  S
C2959      C2960   1.413       .  A
C2960     Br2961   1.933       .  S
C2965      C2966   1.412       .  A
C2965      C2970   1.413       .  A
C2965     Br2972   1.932       .  S
C2966      C2967   1.413       .  A
C2967      C2968   1.412       .  A
C2967     Br2974   1.933       .  S
C2968      C2969   1.413       .  A
C2968     Br2973   1.932       .  S
C2969      C2970   1.414       .  A
C2970     Br2971   1.931       .  S
C2975      C2980   1.412       .  A
C2975     Br2982   1.932       .  S
C2977      C2978   1.409       .  A
C2977     Br2984   1.934       .  S
C2978     Br2983   1.933       .  S
C2980     Br2981   1.931       .  S
C2985      C2986   1.408       .  A
C2985      C2990   1.414   1_556  A
C2985     Br2992   1.936       .  S
C2986      C2987   1.407       .  A
C2987      C2988   1.414   1_556  A
C2987     Br2994   1.937       .  S
C2988      C2989   1.431       .  A
C2988     Br2993   1.938       .  S
C2989      C2990   1.428       .  A
C2990     Br2991   1.937       .  S
C2995      C2996   1.416       .  A
C2995      C3000   1.415       .  A
C2995     Br3002   1.931       .  S
C2996      C2997   1.414       .  A
C2997      C2998   1.411       .  A
C2997     Br3004   1.930       .  S
C2998      C2999   1.412       .  A
C2998     Br3003   1.933       .  S
C2999      C3000   1.412       .  A
C3000     Br3001   1.931       .  S
C3005      C3006   1.416       .  A
C3005      C3010   1.414       .  A
C3005     Br3012   1.932       .  S
C3006      C3007   1.415       .  A
C3007      C3008   1.415       .  A
C3007     Br3014   1.932       .  S
C3008      C3009   1.414       .  A
C3008     Br3013   1.932       .  S
C3009      C3010   1.412       .  A
C3010     Br3011   1.932       .  S
C3015      C3020   1.411   1_554  A
C3015     Br3022   1.934   1_565  S
C3016      C3017   1.424       .  A
C3017      C3018   1.413   1_554  A
C3017     Br3024   1.936       .  S
C3018      C3019   1.410       .  A
C3018     Br3023   1.934       .  S
C3020     Br3021   1.934       .  S
C3025      C3030   1.412   1_554  A
C3025     Br3032   1.936       .  S
C3026      C3027   1.406   1_655  A
C3027      C3028   1.412   1_554  A
C3027     Br3034   1.936       .  S
C3028      C3029   1.428   1_455  A
C3028     Br3033   1.938       .  S
C3030     Br3031   1.938       .  S
C3035      C3040   1.412       .  A
C3035     Br3042   1.934       .  S
C3036      C3037   1.415       .  A
C3037      C3038   1.414       .  A
C3037     Br3044   1.932       .  S
C3038      C3039   1.415       .  A
C3038     Br3043   1.933       .  S
C3040     Br3041   1.934       .  S
C3045      C3050   1.412       .  A
C3045     Br3052   1.934       .  S
C3046      C3047   1.413       .  A
C3047      C3048   1.412       .  A
C3047     Br3054   1.933       .  S
C3048      C3049   1.415       .  A
C3048     Br3053   1.932       .  S
C3050     Br3051   1.934       .  S
C3055      C3060   1.411   1_554  A
C3055     Br3062   1.930       .  S
C3056      C3057   1.414       .  A
C3057      C3058   1.411   1_554  A
C3057     Br3064   1.931       .  S
C3058      C3059   1.410       .  A
C3058     Br3063   1.932       .  S
C3060     Br3061   1.931       .  S
C3065      C3066   1.411       .  A
C3065      C3070   1.410       .  A
C3065     Br3072   1.931       .  S
C3066      C3067   1.412       .  A
C3067      C3068   1.411       .  A
C3067     Br3074   1.932       .  S
C3068      C3069   1.411       .  A
C3068     Br3073   1.926       .  S
C3069      C3070   1.413       .  A
C3070     Br3071   1.932       .  S
C3075      C3080   1.413       .  A
C3075     Br3082   1.932       .  S
C3076      C3077   1.413       .  A
C3077      C3078   1.411       .  A
C3077     Br3084   1.933       .  S
C3078      C3079   1.414       .  A
C3078     Br3083   1.933       .  S
C3080     Br3081   1.931       .  S
C3085      C3086   1.416       .  A
C3085      C3090   1.418       .  A
C3085     Br3092   1.937       .  S
C3087      C3088   1.407       .  A
C3087     Br3094   1.944       .  S
C3088     Br3093   1.942       .  S
C3089      C3090   1.428       .  A
C3090     Br3091   1.938       .  S
C3095      C3096   1.413       .  A
C3095      C3100   1.409       .  A
C3095     Br3102   1.932       .  S
C3096      C3097   1.415       .  A
C3097      C3098   1.408       .  A
C3097     Br3104   1.932       .  S
C3098      C3099   1.410       .  A
C3098     Br3103   1.934       .  S
C3099      C3100   1.412       .  A
C3100     Br3101   1.933       .  S
C3105      C3106   1.414       .  A
C3105      C3110   1.409       .  A
C3105     Br3112   1.934       .  S
C3106      C3107   1.413       .  A
C3107      C3108   1.409       .  A
C3107     Br3114   1.932       .  S
C3108      C3109   1.411       .  A
C3108     Br3113   1.934       .  S
C3109      C3110   1.412       .  A
C3110     Br3111   1.933       .  S
C3115      C3120   1.417       .  A
C3115     Br3122   1.931       .  S
C3117      C3118   1.411       .  A
C3117     Br3124   1.934       .  S
C3118     Br3123   1.934       .  S
C3120     Br3121   1.932       .  S
C3125      C3126   1.411       .  A
C3125      C3130   1.409       .  A
C3125     Br3132   1.933       .  S
C3127      C3128   1.409       .  A
C3127     Br3134   1.933       .  S
C3128     Br3133   1.933       .  S
C3129      C3130   1.413       .  A
C3130     Br3131   1.932       .  S
C3135      C3140   1.410       .  A
C3135     Br3142   1.932       .  S
C3136      C3137   1.412       .  A
C3137      C3138   1.408       .  A
C3137     Br3144   1.934       .  S
C3138      C3139   1.414       .  A
C3138     Br3143   1.933       .  S
C3140     Br3141   1.932       .  S
C3145      C3146   1.411       .  A
C3145      C3150   1.411       .  A
C3145     Br3152   1.932       .  S
C3146      C3147   1.412       .  A
C3147      C3148   1.412       .  A
C3147     Br3154   1.931       .  S
C3148      C3149   1.413       .  A
C3148     Br3153   1.931       .  S
C3149      C3150   1.414       .  A
C3150     Br3151   1.932       .  S
C3155      C3156   1.406       .  A
C3155      C3160   1.413       .  A
C3155     Br3162   1.931       .  S
C3156      C3157   1.406       .  A
C3157      C3158   1.410       .  A
C3157     Br3164   1.932       .  S
C3158      C3159   1.424       .  A
C3158     Br3163   1.936       .  S
C3159      C3160   1.424       .  A
C3160     Br3161   1.934       .  S
C3165      C3166   1.414       .  A
C3165      C3170   1.412       .  A
C3165     Br3172   1.934       .  S
C3166      C3167   1.414       .  A
C3167      C3168   1.413       .  A
C3167     Br3174   1.934       .  S
C3168      C3169   1.417       .  A
C3168     Br3173   1.934       .  S
C3169      C3170   1.416       .  A
C3170     Br3171   1.934       .  S
C3175      C3176   1.415       .  A
C3175      C3180   1.414       .  A
C3175     Br3182   1.933       .  S
C3176      C3177   1.415       .  A
C3177      C3178   1.414       .  A
C3177     Br3184   1.933       .  S
C3178      C3179   1.415       .  A
C3178     Br3183   1.933       .  S
C3179      C3180   1.415       .  A
C3180     Br3181   1.933       .  S
C3185      C3186   1.412       .  A
C3185      C3190   1.411       .  A
C3185     Br3192   1.931       .  S
C3187      C3188   1.409       .  A
C3187     Br3194   1.932       .  S
C3188     Br3193   1.932       .  S
C3189      C3190   1.412       .  A
C3190     Br3191   1.931       .  S
C3195      C3200   1.410       .  A
C3195     Br3202   1.931       .  S
C3196      C3197   1.412       .  A
C3197      C3198   1.410       .  A
C3197     Br3204   1.931       .  S
C3198      C3199   1.411       .  A
C3198     Br3203   1.931       .  S
C3200     Br3201   1.932       .  S
C3205      C3210   1.412       .  A
C3205     Br3212   1.933       .  S
C3206      C3207   1.413       .  A
C3207      C3208   1.411       .  A
C3207     Br3214   1.934       .  S
C3208      C3209   1.415       .  A
C3208     Br3213   1.934       .  S
C3210     Br3211   1.933       .  S
C3215      C3216   1.428       .  A
C3215      C3220   1.413       .  A
C3215     Br3222   1.936       .  S
C3217      C3218   1.413       .  A
C3217     Br3224   1.937       .  S
C3218     Br3223   1.935       .  S
C3219      C3220   1.405       .  A
C3220     Br3221   1.934       .  S
C3225      C3230   1.412       .  A
C3225     Br3232   1.931       .  S
C3226      C3227   1.413       .  A
C3227      C3228   1.413       .  A
C3227     Br3234   1.930       .  S
C3228      C3229   1.412       .  A
C3228     Br3233   1.930       .  S
C3230     Br3231   1.931       .  S
C3235      C3240   1.416       .  A
C3235     Br3242   1.930       .  S
C3236      C3237   1.412       .  A
C3237      C3238   1.414       .  A
C3237     Br3244   1.931       .  S
C3238      C3239   1.413       .  A
C3238     Br3243   1.931       .  S
C3240     Br3241   1.930       .  S
C3245      C3250   1.413       .  A
C3245     Br3252   1.932       .  S
C3247      C3248   1.411       .  A
C3247     Br3254   1.932       .  S
C3248     Br3253   1.931       .  S
C3250     Br3251   1.931       .  S
C3255      C3256   1.410       .  A
C3255      C3260   1.415       .  A
C3255     Br3262   1.935       .  S
C3257      C3258   1.413       .  A
C3257     Br3264   1.936       .  S
C3258     Br3263   1.937       .  S
C3259      C3260   1.426       .  A
C3260     Br3261   1.936       .  S
