geometry optimzed in LAMMPS
_audit_creation_date              2020-11-30 
_audit_creation_method            'lammps2cif' 
_symmetry_space_group_name_H-M    'P1' 
_symmetry_Int_Tables_number       1 
_symmetry_cell_setting            triclinic 
loop_ 
_symmetry_equiv_pos_as_xyz 
  x,y,z 
_cell_length_a                    30.18168601 
_cell_length_b                    30.227696042884123 
_cell_length_c                    90.37813493754184 
_cell_angle_alpha                 90.10751208113162 
_cell_angle_beta                  90.02894472356707 
_cell_angle_gamma                 119.9699555470203 
loop_ 
_atom_site_label 
_atom_site_type_symbol 
_atom_site_fract_x 
_atom_site_fract_y 
_atom_site_fract_z 
_atom_site_charge 
O1          O  0.03940990  0.01217273  0.22830636    -0.74500
O2          O  0.04088845  0.02027861  0.27051553    -0.74500
O3          O  0.03856621  0.95237423  0.25043793    -0.74600
O4          O  0.04166400  0.08039730  0.24824995    -0.74600
O5          O  0.95649981  0.03942651  0.24889006    -0.74600
O6          O  0.95336349  0.91103892  0.25005876    -0.74600
O7          O  0.95568076  0.97791914  0.27074544    -0.74500
O8          O  0.95412616  0.97323661  0.22841076    -0.74600
Ni9        Ni  0.04313639  0.01775190  0.24938814     1.25400
Ni10       Ni  0.95184921  0.97387100  0.24956013     1.25400
C11         C  0.99658705  0.99171209  0.22143683     0.87700
C12         C  0.99857706  0.00057430  0.27762767     0.87600
C13         C  0.99560409  0.91054262  0.25028835     0.87600
C14         C  0.99954986  0.08110635  0.24823606     0.87800
O15         O  0.95935711  0.47656870  0.22873207    -0.74500
O16         O  0.95543941  0.47348351  0.27091866    -0.74500
O17         O  0.95600184  0.53781268  0.24992459    -0.74600
O18         O  0.95895043  0.41260945  0.24953488    -0.74600
O19         O  0.04413614  0.45613965  0.25017948    -0.74600
O20         O  0.04119006  0.58153368  0.25067075    -0.74600
O21         O  0.04083735  0.51753997  0.27162155    -0.74500
O22         O  0.04457707  0.52052527  0.22936453    -0.74600
Ni23       Ni  0.95442122  0.47356773  0.24977830     1.25400
Ni24       Ni  0.04575100  0.52049693  0.25050611     1.25400
C25         C  0.00252762  0.49898426  0.22208012     0.87700
C26         C  0.99748802  0.49509199  0.27815857     0.87600
C27         C  0.99818644  0.58044288  0.25021694     0.87600
C28         C  0.00189463  0.41356940  0.24961231     0.87800
O29         O  0.54012150  0.02544804  0.27125743    -0.74500
O30         O  0.54328972  0.02660394  0.22897518    -0.74500
O31         O  0.54094891  0.08879694  0.25016301    -0.74600
O32         O  0.54226177  0.96280715  0.25008681    -0.74600
O33         O  0.45716585  0.91968313  0.24867314    -0.74600
O34         O  0.45572965  0.04579921  0.25049134    -0.74600
O35         O  0.45807726  0.98612049  0.22842623    -0.74500
O36         O  0.45484470  0.97914476  0.27074639    -0.74600
Ni37       Ni  0.54467100  0.02740593  0.25014381     1.25400
Ni38       Ni  0.45337407  0.98113075  0.24956329     1.25400
C39         C  0.49705444  0.00193500  0.27792332     0.87700
C40         C  0.50121848  0.00699455  0.22171318     0.87600
C41         C  0.49820545  0.08820680  0.25047659     0.87600
C42         C  0.49997181  0.92040423  0.24920876     0.87800
O43         O  0.45967642  0.48263543  0.22857604    -0.74500
O44         O  0.45970097  0.48814288  0.27085708    -0.74500
O45         O  0.46026367  0.54867830  0.24883952    -0.74600
O46         O  0.45879618  0.42138273  0.25055406    -0.74600
O47         O  0.54399108  0.46299939  0.24994115    -0.74600
O48         O  0.54547174  0.59063976  0.24956227    -0.74600
O49         O  0.54505040  0.52745900  0.27087027    -0.74500
O50         O  0.54491039  0.52613496  0.22867627    -0.74600
Ni51       Ni  0.45655726  0.48367000  0.24971116     1.25400
Ni52       Ni  0.54790091  0.52832040  0.24976666     1.25400
C53         C  0.50238377  0.50404028  0.22164476     0.87700
C54         C  0.50245891  0.50840587  0.27776262     0.87600
C55         C  0.50302253  0.59068904  0.24901088     0.87600
C56         C  0.50110875  0.42106784  0.25037560     0.87800
O57         O  0.98129122  0.96696627  0.39458601    -0.74500
O58         O  0.98332626  0.96328651  0.43699649    -0.74500
O59         O  0.91905396  0.96483900  0.41624830    -0.74600
O60         O  0.04582489  0.96508157  0.41512443    -0.74600
O61         O  0.08851677  0.05008816  0.41672009    -0.74600
O62         O  0.96140767  0.04993826  0.41620278    -0.74600
O63         O  0.02346925  0.04831799  0.43759311    -0.74500
O64         O  0.02689682  0.05213584  0.39526934    -0.74600
Ni65       Ni  0.98090970  0.96200379  0.41573192     1.25400
Ni66       Ni  0.02658864  0.05316445  0.41647205     1.25400
C67         C  0.00397031  0.01018987  0.38799783     0.87700
C68         C  0.00325828  0.00531324  0.44430926     0.87600
C69         C  0.91918178  0.00726967  0.41616083     0.87600
C70         C  0.08805341  0.00753710  0.41584833     0.87800
O71         O  0.95330068  0.53949148  0.41660437    -0.74500
O72         O  0.08020746  0.54007667  0.41566470    -0.74500
O73         O  0.01424789  0.53816566  0.39503300    -0.74600
O74         O  0.01895171  0.54125247  0.43738618    -0.74600
O75         O  0.97643969  0.45618975  0.43773617    -0.74600
O76         O  0.97276900  0.45303410  0.39541025    -0.74600
O77         O  0.03813321  0.45498433  0.41609921    -0.74500
O78         O  0.91089156  0.45440133  0.41679518    -0.74600
Ni79       Ni  0.01819201  0.54275552  0.41617553     1.25400
Ni80       Ni  0.97303187  0.45161412  0.41656294     1.25400
C81         C  0.91110708  0.49692309  0.41660249     0.87700
C82         C  0.08018940  0.49768359  0.41559425     0.87600
C83         C  0.99280507  0.49513878  0.38824583     0.87600
C84         C  0.99837625  0.49913855  0.44457970     0.87800
O85         O  0.52199230  0.04553339  0.39543380    -0.74500
O86         O  0.52127279  0.04309936  0.43781705    -0.74500
O87         O  0.58507583  0.04441330  0.41655218    -0.74600
O88         O  0.45868772  0.04483668  0.41679589    -0.74600
O89         O  0.41575758  0.95969437  0.41603490    -0.74600
O90         O  0.54271202  0.95933186  0.41617973    -0.74600
O91         O  0.47843627  0.95799245  0.43732930    -0.74500
O92         O  0.47980421  0.96044445  0.39507849    -0.74600
Ni93       Ni  0.52330290  0.04749146  0.41666513     1.25400
Ni94       Ni  0.47764821  0.95633232  0.41615621     1.25400
C95         C  0.50090573  0.00322567  0.38825602     0.87700
C96         C  0.49958177  0.00010217  0.44456664     0.87600
C97         C  0.58494014  0.00197642  0.41629690     0.87600
C98         C  0.41641036  0.00242953  0.41638376     0.87800
O99         O  0.51782794  0.54475263  0.39518972    -0.74500
O100        O  0.51667265  0.53848428  0.43749331    -0.74500
O101        O  0.58107927  0.54177406  0.41595995    -0.74600
O102        O  0.45399643  0.54124690  0.41655156    -0.74600
O103        O  0.41181467  0.45626460  0.41516720    -0.74600
O104        O  0.53881628  0.45670795  0.41524245    -0.74600
O105        O  0.47390990  0.45344499  0.43657221    -0.74500
O106        O  0.47734089  0.45959934  0.39415362    -0.74600
Ni107      Ni  0.51895048  0.54457084  0.41636739     1.25400
Ni108      Ni  0.47390534  0.45345736  0.41527554     1.25400
C109        C  0.49803871  0.50315105  0.38773992     0.87700
C110        C  0.49481021  0.49513143  0.44405436     0.87600
C111        C  0.58095983  0.49932413  0.41535510     0.87600
C112        C  0.41191551  0.49870151  0.41568364     0.87800
O113        O  0.04962910  0.01758699  0.06233543    -0.74500
O114        O  0.04935706  0.01577804  0.10464664    -0.74500
O115        O  0.04974070  0.95362068  0.08324379    -0.74600
O116        O  0.04938746  0.08006822  0.08376674    -0.74600
O117        O  0.96419139  0.03768739  0.08277819    -0.74600
O118        O  0.96453225  0.91092749  0.08397540    -0.74600
O119        O  0.96403458  0.97623434  0.10445676    -0.74500
O120        O  0.96422785  0.97255301  0.06223673    -0.74600
Ni121      Ni  0.05258122  0.01830653  0.08349347     1.25400
Ni122      Ni  0.96117803  0.97276356  0.08335530     1.25400
C123        C  0.00695999  0.99515661  0.05539265     0.87700
C124        C  0.00654271  0.99610545  0.11147637     0.87600
C125        C  0.00725943  0.91136947  0.08372800     0.87600
C126        C  0.00684071  0.07986356  0.08323634     0.87800
O127        O  0.05204983  0.51882167  0.10495597    -0.74500
O128        O  0.05319997  0.51772384  0.06267488    -0.74500
O129        O  0.05276317  0.58175659  0.08360692    -0.74600
O130        O  0.05237388  0.45465403  0.08406687    -0.74600
O131        O  0.96716565  0.41242038  0.08335388    -0.74600
O132        O  0.96753549  0.53930263  0.08389155    -0.74600
O133        O  0.96797562  0.47671199  0.06253266    -0.74500
O134        O  0.96681054  0.47508119  0.10469715    -0.74600
Ni135      Ni  0.05566517  0.51974135  0.08383199     1.25400
Ni136      Ni  0.96436661  0.47437177  0.08360698     1.25400
C137        C  0.00919766  0.49708850  0.11179969     0.87700
C138        C  0.01067821  0.49727854  0.05562266     0.87600
C139        C  0.01015576  0.58150372  0.08382045     0.87600
C140        C  0.00966353  0.41252264  0.08368223     0.87800
O141        O  0.54864478  0.02815064  0.10416021    -0.74500
O142        O  0.54792046  0.02617018  0.06179770    -0.74500
O143        O  0.54913313  0.09114370  0.08272427    -0.74600
O144        O  0.54761508  0.96375312  0.08315790    -0.74600
O145        O  0.46241065  0.92181047  0.08354015    -0.74600
O146        O  0.46393277  0.04938738  0.08242878    -0.74600
O147        O  0.46270000  0.98352020  0.06187235    -0.74500
O148        O  0.46341691  0.98755792  0.10415111    -0.74600
Ni149      Ni  0.55135439  0.02883764  0.08296560     1.25400
Ni150      Ni  0.46008538  0.98410865  0.08301083     1.25400
C151        C  0.50605999  0.00816503  0.11114724     0.87700
C152        C  0.50517941  0.00399039  0.05483898     0.87600
C153        C  0.50679536  0.09138119  0.08240636     0.87600
C154        C  0.50485524  0.92173705  0.08338655     0.87800
O155        O  0.46565788  0.48759476  0.06198172    -0.74500
O156        O  0.46425823  0.48479686  0.10414841    -0.74500
O157        O  0.46437435  0.54912759  0.08343991    -0.74600
O158        O  0.46555600  0.42303215  0.08262695    -0.74600
O159        O  0.55075274  0.46589019  0.08317988    -0.74600
O160        O  0.54959809  0.59213150  0.08337752    -0.74600
O161        O  0.54948415  0.52853740  0.10442821    -0.74500
O162        O  0.55093503  0.52953388  0.06219550    -0.74600
Ni163      Ni  0.46194186  0.48457929  0.08304774     1.25400
Ni164      Ni  0.55324554  0.53056486  0.08331708     1.25400
C165        C  0.50846676  0.50891682  0.05512885     0.87700
C166        C  0.50662498  0.50651821  0.11126571     0.87600
C167        C  0.50680296  0.59150526  0.08343750     0.87600
C168        C  0.50828868  0.42354477  0.08273326     0.87800
O169        O  0.02716597  0.97854659  0.93810536    -0.74500
O170        O  0.02273696  0.97708017  0.89582367    -0.74500
O171        O  0.08866674  0.04170307  0.91661338    -0.74600
O172        O  0.96168960  0.91472830  0.91738965    -0.74600
O173        O  0.91934883  0.95752807  0.91823342    -0.74600
O174        O  0.04580414  0.08402538  0.91673509    -0.74600
O175        O  0.97924149  0.01875431  0.89631020    -0.74500
O176        O  0.98608991  0.02272105  0.93863013    -0.74600
Ni177      Ni  0.02667186  0.97657584  0.91695591     1.25400
Ni178      Ni  0.98113291  0.02228128  0.91749117     1.25400
C179        C  0.00740285  0.00088619  0.94532940     0.87700
C180        C  0.99953115  0.99689054  0.88907177     0.87600
C181        C  0.08818069  0.08390534  0.91664953     0.87600
C182        C  0.91948326  0.91520929  0.91791775     0.87800
O183        O  0.97746250  0.52252511  0.89659121    -0.74500
O184        O  0.98332229  0.52504429  0.93890634    -0.74500
O185        O  0.04407343  0.58745111  0.91713008    -0.74600
O186        O  0.91722317  0.46056053  0.91852759    -0.74600
O187        O  0.96026160  0.41840700  0.91827704    -0.74600
O188        O  0.08671878  0.54493488  0.91632908    -0.74600
O189        O  0.02792678  0.48431185  0.93832313    -0.74500
O190        O  0.01948139  0.47937075  0.89613341    -0.74600
Ni191      Ni  0.97903622  0.52548676  0.91779231     1.25400
Ni192      Ni  0.02507290  0.48023672  0.91722297     1.25400
C193        C  0.99725491  0.50016264  0.88936398     0.87700
C194        C  0.00664118  0.50513893  0.94552370     0.87600
C195        C  0.08639437  0.58713665  0.91664735     0.87600
C196        C  0.91783491  0.41846912  0.91875377     0.87800
O197        O  0.48242328  0.02493062  0.89576750    -0.74500
O198        O  0.48091057  0.01868260  0.93806261    -0.74500
O199        O  0.54503720  0.08576661  0.91765520    -0.74600
O200        O  0.41896184  0.95865118  0.91629743    -0.74600
O201        O  0.46205543  0.91654649  0.91609416    -0.74600
O202        O  0.58840567  0.04406321  0.91635915    -0.74600
O203        O  0.52659707  0.97909127  0.93729597    -0.74500
O204        O  0.52437683  0.98172634  0.89503931    -0.74600
Ni205      Ni  0.48036556  0.02356911  0.91695946     1.25400
Ni206      Ni  0.52689789  0.97884910  0.91614550     1.25400
C207        C  0.50311050  0.00373191  0.88840426     0.87700
C208        C  0.50366714  0.99803180  0.94459085     0.87600
C209        C  0.58761055  0.08599242  0.91727622     0.87600
C210        C  0.41957166  0.91658616  0.91618849     0.87800
O211        O  0.47776772  0.52294625  0.89613221    -0.74500
O212        O  0.48155307  0.52424957  0.93831051    -0.74500
O213        O  0.54350737  0.58690017  0.91683517    -0.74600
O214        O  0.41630951  0.46014693  0.91770173    -0.74600
O215        O  0.45918508  0.41783132  0.91801291    -0.74600
O216        O  0.58575506  0.54402481  0.91580476    -0.74600
O217        O  0.52675509  0.48414169  0.93798203    -0.74500
O218        O  0.51807128  0.47803673  0.89573817    -0.74600
Ni219      Ni  0.47829003  0.52511992  0.91725272     1.25400
Ni220      Ni  0.52395235  0.47947967  0.91685399     1.25400
C221        C  0.49680815  0.49982138  0.88897214     0.87700
C222        C  0.50495800  0.50474523  0.94506416     0.87600
C223        C  0.58569884  0.58635670  0.91619327     0.87600
C224        C  0.41681086  0.41798755  0.91814046     0.87800
O225        O  0.02377290  0.04690132  0.56199621    -0.74500
O226        O  0.02407491  0.04941762  0.60440739    -0.74500
O227        O  0.08816013  0.04879458  0.58333905    -0.74600
O228        O  0.96015735  0.04729226  0.58291347    -0.74600
O229        O  0.91853653  0.96215315  0.58393905    -0.74600
O230        O  0.04602893  0.96370699  0.58332238    -0.74600
O231        O  0.98402800  0.96432824  0.60468486    -0.74500
O232        O  0.98094386  0.96180633  0.56230186    -0.74600
Ni233      Ni  0.02559847  0.05116850  0.58315582     1.25400
Ni234      Ni  0.98090265  0.96000999  0.58355154     1.25400
C235        C  0.00193517  0.00401199  0.55513550     0.87700
C236        C  0.00421876  0.00718620  0.61154063     0.87600
C237        C  0.08816144  0.00634373  0.58342762     0.87600
C238        C  0.91834813  0.00438946  0.58346836     0.87800
O239        O  0.97648927  0.45541191  0.60467121    -0.74500
O240        O  0.97518508  0.45788641  0.56230754    -0.74500
O241        O  0.03890893  0.45683030  0.58312158    -0.74600
O242        O  0.91203773  0.45632011  0.58394503    -0.74600
O243        O  0.95415594  0.54140531  0.58377650    -0.74600
O244        O  0.08139929  0.54188295  0.58423328    -0.74600
O245        O  0.01905814  0.54293725  0.56268323    -0.74500
O246        O  0.01625232  0.54060094  0.60508860    -0.74600
Ni247      Ni  0.97409612  0.45360598  0.58347513     1.25400
Ni248      Ni  0.01926069  0.54477025  0.58393578     1.25400
C249        C  0.99628240  0.49766409  0.61181472     0.87700
C250        C  0.99748704  0.50071611  0.55546920     0.87600
C251        C  0.08107777  0.49931720  0.58376966     0.87600
C252        C  0.91204092  0.49871781  0.58407935     0.87800
O253        O  0.47973901  0.95547612  0.60451010    -0.74500
O254        O  0.47779199  0.95425625  0.56220358    -0.74500
O255        O  0.54165993  0.95405355  0.58333398    -0.74600
O256        O  0.41545603  0.95610348  0.58364999    -0.74600
O257        O  0.45903775  0.04119108  0.58340617    -0.74600
O258        O  0.58481411  0.03928007  0.58286689    -0.74600
O259        O  0.52071339  0.03938230  0.56206388    -0.74500
O260        O  0.52247753  0.04075129  0.60435014    -0.74600
Ni261      Ni  0.47703713  0.95190152  0.58340725     1.25400
Ni262      Ni  0.52335355  0.04315384  0.58317450     1.25400
C263        C  0.50129340  0.99829508  0.61135308     0.87700
C264        C  0.49902824  0.99664122  0.55514312     0.87600
C265        C  0.58397610  0.99650046  0.58304578     0.87600
C266        C  0.41644115  0.99905929  0.58367013     0.87800
O267        O  0.51367667  0.53610035  0.56195558    -0.74500
O268        O  0.51673863  0.53885612  0.60440767    -0.74500
O269        O  0.57897816  0.53790159  0.58300115    -0.74600
O270        O  0.45201177  0.53734715  0.58358589    -0.74600
O271        O  0.40978970  0.45222013  0.58385636    -0.74600
O272        O  0.53701758  0.45281984  0.58325938    -0.74600
O273        O  0.47557272  0.45367470  0.60473673    -0.74500
O274        O  0.47185442  0.45103177  0.56225776    -0.74600
Ni275      Ni  0.51687131  0.54055288  0.58319053     1.25400
Ni276      Ni  0.47196859  0.44939768  0.58352308     1.25400
C277        C  0.49229734  0.49318079  0.55507203     0.87700
C278        C  0.49693826  0.49666730  0.61154336     0.87600
C279        C  0.57907013  0.49555584  0.58326772     0.87600
C280        C  0.40994160  0.49473046  0.58394424     0.87800
O281        O  0.01396845  0.97421216  0.77126331    -0.74500
O282        O  0.01550687  0.97790260  0.72891326    -0.74500
O283        O  0.07846149  0.03943997  0.75058403    -0.74600
O284        O  0.95164551  0.91309951  0.74962242    -0.74600
O285        O  0.90905401  0.95569601  0.74966154    -0.74600
O286        O  0.03612876  0.08226166  0.75122072    -0.74600
O287        O  0.97447797  0.02211840  0.72924056    -0.74500
O288        O  0.97078069  0.01620156  0.77159156    -0.74600
Ni289      Ni  0.01644891  0.97471116  0.75007518     1.25400
Ni290      Ni  0.97108255  0.02058785  0.75043832     1.25400
C291        C  0.99167612  0.99419641  0.77843274     0.87700
C292        C  0.99537013  0.00068522  0.72209841     0.87600
C293        C  0.07835176  0.08176313  0.75108407     0.87600
C294        C  0.90937639  0.91342685  0.74954027     0.87800
O295        O  0.97133066  0.51591334  0.72921322    -0.74500
O296        O  0.96898893  0.51505025  0.77157887    -0.74500
O297        O  0.03325781  0.57892599  0.75071712    -0.74600
O298        O  0.90690029  0.45200321  0.75007442    -0.74600
O299        O  0.94972303  0.40964992  0.75033721    -0.74600
O300        O  0.07627390  0.53676098  0.75082986    -0.74600
O301        O  0.01206216  0.47294253  0.77174442    -0.74500
O302        O  0.01405990  0.47346392  0.72938873    -0.74600
Ni303      Ni  0.96858355  0.51694696  0.75038535     1.25400
Ni304      Ni  0.01455289  0.47169396  0.75058266     1.25400
C305        C  0.99312633  0.49491840  0.72228823     0.87700
C306        C  0.99027462  0.49392986  0.77867222     0.87600
C307        C  0.07568185  0.57887774  0.75087172     0.87600
C308        C  0.90734300  0.40983148  0.75012589     0.87800
O309        O  0.46891979  0.01537821  0.72841222    -0.74500
O310        O  0.46971402  0.01804804  0.77077216    -0.74500
O311        O  0.53284337  0.07988327  0.74930806    -0.74600
O312        O  0.40563746  0.95344554  0.74987075    -0.74600
O313        O  0.44816404  0.91079190  0.75014868    -0.74600
O314        O  0.57518380  0.03704003  0.74950303    -0.74600
O315        O  0.51234744  0.97548417  0.77091671    -0.74500
O316        O  0.51100880  0.97226224  0.72869532    -0.74600
Ni317      Ni  0.46773331  0.01820658  0.74957399     1.25400
Ni318      Ni  0.51314679  0.97237379  0.74982345     1.25400
C319        C  0.49001548  0.99354390  0.72156396     0.87700
C320        C  0.49135787  0.99723747  0.77784001     0.87600
C321        C  0.57506253  0.07937145  0.74932699     0.87600
C322        C  0.40590033  0.91117814  0.75015182     0.87800
O323        O  0.51479427  0.47485163  0.77178860    -0.74500
O324        O  0.51817387  0.47511845  0.72941303    -0.74500
O325        O  0.58000576  0.53856719  0.75095669    -0.74600
O326        O  0.45315332  0.41171334  0.75034281    -0.74600
O327        O  0.41064969  0.45438526  0.75003931    -0.74600
O328        O  0.53729151  0.58101710  0.75039462    -0.74600
O329        O  0.47551032  0.51764418  0.72900127    -0.74500
O330        O  0.47299253  0.51828586  0.77135709    -0.74600
Ni331      Ni  0.51807386  0.47356155  0.75063708     1.25400
Ni332      Ni  0.47255106  0.51927732  0.75016839     1.25400
C333        C  0.49341264  0.49654740  0.77855401     0.87700
C334        C  0.49756768  0.49667640  0.72219757     0.87600
C335        C  0.57960010  0.58078574  0.75076098     0.87600
C336        C  0.41087865  0.41209378  0.75022949     0.87800
C337        C  0.71851317  0.31419103  0.74716280    -0.17900
C338        C  0.67210220  0.26804983  0.74699034    -0.20100
C339        C  0.67137385  0.22139783  0.74812344     0.20600
C340        C  0.71788264  0.22120683  0.74940031    -0.03000
C341        C  0.76473420  0.26778348  0.74957446    -0.06100
C342        C  0.76498178  0.31445400  0.74846558     0.20800
C343        C  0.81125296  0.26761824  0.75087260     0.19000
C344        C  0.81051610  0.22095281  0.75199292    -0.17600
C345        C  0.76409055  0.17479726  0.75182123    -0.19800
C346        C  0.71760818  0.17452547  0.75053107     0.20500
C347        C  0.67089403  0.12841003  0.75040292    -0.32800
C348        C  0.62428932  0.12823495  0.74921586     0.01200
C349        C  0.62495659  0.17498931  0.74804803    -0.24100
C350        C  0.81164369  0.36057757  0.74867597    -0.28700
C351        C  0.85825741  0.36082232  0.74994003     0.06900
C352        C  0.85765958  0.31407615  0.75103022    -0.27400
H353        H  0.71805560  0.34970259  0.74628866     0.11600
H354        H  0.63673538  0.26886476  0.74599259     0.12700
H355        H  0.84588105  0.22014169  0.75300533     0.11800
H356        H  0.76454334  0.13928690  0.75271069     0.11000
H357        H  0.67089098  0.09266217  0.75132458     0.16400
H358        H  0.58933578  0.17535542  0.74709453     0.12300
H359        H  0.81158334  0.39630745  0.74781157     0.15200
H360        H  0.89329640  0.31376900  0.75203885     0.15000
C361        C  0.31081650  0.72249087  0.74982921    -0.17900
C362        C  0.26472765  0.67605490  0.74993878    -0.20100
C363        C  0.21787982  0.67525581  0.75054991     0.20600
C364        C  0.21744344  0.72169740  0.75111788    -0.03000
C365        C  0.26397148  0.76857594  0.75100206    -0.06100
C366        C  0.31082616  0.76889600  0.75032358     0.20800
C367        C  0.26357400  0.81504633  0.75150436     0.19000
C368        C  0.21671300  0.81422482  0.75221064    -0.17600
C369        C  0.17059486  0.76775855  0.75232642    -0.19800
C370        C  0.17055727  0.72133417  0.75173883     0.20500
C371        C  0.12447564  0.67459674  0.75170413    -0.32800
C372        C  0.12454027  0.62808043  0.75106631     0.01200
C373        C  0.17150767  0.62882895  0.75054352    -0.24100
C374        C  0.35688135  0.81556780  0.75009582    -0.28700
C375        C  0.35690713  0.86212997  0.75049835     0.06900
C376        C  0.30999593  0.86148535  0.75124086    -0.27400
H377        H  0.34649225  0.72210358  0.74931711     0.11600
H378        H  0.26572580  0.64074128  0.74950830     0.12700
H379        H  0.21571860  0.84954153  0.75262875     0.11800
H380        H  0.13491599  0.76814115  0.75283087     0.11000
H381        H  0.08854909  0.67452643  0.75214559     0.16400
H382        H  0.17206391  0.59327786  0.75005524     0.12300
H383        H  0.39274453  0.81553943  0.74953767     0.15200
H384        H  0.30953026  0.89709452  0.75160397     0.15000
C385        C  0.76879008  0.67823160  0.75106924    -0.17900
C386        C  0.81481822  0.72472619  0.75072220    -0.20100
C387        C  0.81466124  0.77105060  0.75022026     0.20600
C388        C  0.76769951  0.77058962  0.75009300    -0.03000
C389        C  0.72124792  0.72366784  0.75044232    -0.06100
C390        C  0.72183458  0.67729106  0.75090981     0.20800
C391        C  0.67428209  0.72319988  0.75028868     0.19000
C392        C  0.67412955  0.76953128  0.74983565    -0.17600
C393        C  0.72016027  0.81602955  0.74950168    -0.19800
C394        C  0.76711653  0.81696869  0.74961693     0.20500
C395        C  0.81345140  0.86345951  0.74931315    -0.32800
C396        C  0.86047461  0.86427272  0.74948578     0.01200
C397        C  0.86064553  0.81779348  0.74989449    -0.24100
C398        C  0.67550373  0.63079621  0.75113327    -0.28700
C399        C  0.62847443  0.62996583  0.75086331     0.06900
C400        C  0.62829266  0.67644217  0.75051555    -0.27400
H401        H  0.76992127  0.64298715  0.75143414     0.11600
H402        H  0.85058227  0.72444571  0.75084300     0.12700
H403        H  0.63836579  0.76981187  0.74971650     0.11800
H404        H  0.71902918  0.85127490  0.74914863     0.11000
H405        H  0.81283134  0.89898965  0.74900846     0.16400
H406        H  0.89660995  0.81789175  0.75005408     0.12300
H407        H  0.67613618  0.59527133  0.75142808     0.15200
H408        H  0.59232217  0.67632959  0.75033225     0.15000
C409        C  0.26758039  0.17695582  0.75046611    -0.17900
C410        C  0.31402659  0.22308383  0.75025299    -0.20100
C411        C  0.31471412  0.26984877  0.75051761     0.20600
C412        C  0.26813494  0.27014428  0.75106762    -0.03000
C413        C  0.22125742  0.22358937  0.75129746    -0.06100
C414        C  0.22102389  0.17680788  0.75095472     0.20800
C415        C  0.17468103  0.22389982  0.75180087     0.19000
C416        C  0.17537232  0.27065642  0.75214820    -0.17600
C417        C  0.22180680  0.31677456  0.75191866    -0.19800
C418        C  0.26834662  0.31691886  0.75134080     0.20500
C419        C  0.31503788  0.36302144  0.75101344    -0.32800
C420        C  0.36170799  0.36313814  0.75043635     0.01200
C421        C  0.36113133  0.31627637  0.75021995    -0.24100
C422        C  0.17428105  0.13071163  0.75101762    -0.28700
C423        C  0.12760207  0.13063681  0.75139199     0.06900
C424        C  0.12823818  0.17750214  0.75185828    -0.27400
H425        H  0.26807350  0.14137050  0.75020830     0.11600
H426        H  0.34944660  0.22217225  0.74984457     0.12700
H427        H  0.13995287  0.27157002  0.75255046     0.11800
H428        H  0.22130957  0.35235867  0.75215760     0.11000
H429        H  0.31495367  0.39883078  0.75123811     0.16400
H430        H  0.39680798  0.31584256  0.74980321     0.12300
H431        H  0.17432768  0.09489129  0.75067575     0.15200
H432        H  0.09256977  0.17797081  0.75217104     0.15000
C433        C  0.52481505  0.43298413  0.67446425    -0.17900
C434        C  0.52387512  0.43238156  0.65897489    -0.20100
C435        C  0.51164995  0.46492846  0.65113662     0.20600
C436        C  0.50085334  0.49886310  0.65898726    -0.03000
C437        C  0.50099406  0.49887569  0.67461487    -0.06100
C438        C  0.51301890  0.46576111  0.68238870     0.20800
C439        C  0.48869391  0.53173398  0.68244180     0.19000
C440        C  0.47738712  0.56494729  0.67461557    -0.17600
C441        C  0.47804014  0.56551767  0.65914353    -0.19800
C442        C  0.48949823  0.53251430  0.65123087     0.20500
C443        C  0.48935905  0.53225470  0.63570689    -0.32800
C444        C  0.49874326  0.49765148  0.62784968     0.01200
C445        C  0.50974662  0.46400541  0.63560455    -0.24100
C446        C  0.51254854  0.46567435  0.69793089    -0.28700
C447        C  0.49932502  0.49763858  0.70580836     0.06900
C448        C  0.48761165  0.53064938  0.69794994    -0.27400
H449        H  0.53425177  0.40740200  0.68025100     0.11600
H450        H  0.53259208  0.40634263  0.65312209     0.12700
H451        H  0.46798441  0.59049369  0.68046688     0.11800
H452        H  0.46915111  0.59150011  0.65335932     0.11000
H453        H  0.48067613  0.55805916  0.62971413     0.16400
H454        H  0.51751919  0.43767127  0.62952216     0.12300
H455        H  0.52161989  0.44008784  0.70387937     0.15200
H456        H  0.47785827  0.55577564  0.70390579     0.15000
C457        C  0.52428217  0.93364657  0.67435744    -0.17900
C458        C  0.52583257  0.93425751  0.65889491    -0.20100
C459        C  0.51225789  0.96547436  0.65090649     0.20600
C460        C  0.49707849  0.99650065  0.65855258    -0.03000
C461        C  0.49473621  0.99525695  0.67412827    -0.06100
C462        C  0.50864381  0.96385888  0.68205884     0.20800
C463        C  0.47854463  0.02547347  0.68175050     0.19000
C464        C  0.46517798  0.05685673  0.67376305    -0.17600
C465        C  0.46818064  0.05864070  0.65832707    -0.19800
C466        C  0.48413310  0.02870425  0.65063755     0.20500
C467        C  0.48704126  0.03011302  0.63516962    -0.32800
C468        C  0.50106480  0.99853507  0.62755377     0.01200
C469        C  0.51338363  0.96613039  0.63541130    -0.24100
C470        C  0.50679852  0.96332964  0.69754838    -0.28700
C471        C  0.49071652  0.99337461  0.70522373     0.06900
C472        C  0.47630358  0.02405600  0.69722908    -0.27400
H473        H  0.53511230  0.90937124  0.68029446     0.11600
H474        H  0.53774627  0.91039092  0.65318343     0.12700
H475        H  0.45265982  0.08025271  0.67946329     0.11800
H476        H  0.45787596  0.08332951  0.65239747     0.11000
H477        H  0.47707075  0.05468003  0.62901131     0.16400
H478        H  0.52439543  0.94196378  0.62944136     0.12300
H479        H  0.51780094  0.93940776  0.70361778     0.15200
H480        H  0.46406716  0.04748997  0.70305130     0.15000
C481        C  0.76808252  0.58988639  0.58440384    -0.17900
C482        C  0.81463638  0.59034765  0.58461758    -0.20100
C483        C  0.81551742  0.54437690  0.58487122     0.20600
C484        C  0.76905066  0.49747718  0.58517755    -0.03000
C485        C  0.72207586  0.49701043  0.58496140    -0.06100
C486        C  0.72165043  0.54344579  0.58444676     0.20800
C487        C  0.67560810  0.45009738  0.58509421     0.19000
C488        C  0.67648500  0.40415537  0.58569642    -0.17600
C489        C  0.72304261  0.40461715  0.58590610    -0.19800
C490        C  0.76948030  0.45103002  0.58551345     0.20500
C491        C  0.81628565  0.45175979  0.58526977    -0.32800
C492        C  0.86280300  0.49833208  0.58466164     0.01200
C493        C  0.86202791  0.54450127  0.58464112    -0.24100
C494        C  0.67485116  0.54265836  0.58387623    -0.28700
C495        C  0.62833181  0.49603583  0.58380174     0.06900
C496        C  0.62910033  0.44991392  0.58451543    -0.27400
H497        H  0.76840134  0.62587487  0.58408248     0.11600
H498        H  0.84998106  0.62668607  0.58444710     0.12700
H499        H  0.64113732  0.36781948  0.58588025     0.11800
H500        H  0.72272227  0.36862902  0.58623760     0.11000
H501        H  0.81639393  0.41595823  0.58542248     0.16400
H502        H  0.89761068  0.58062024  0.58429606     0.12300
H503        H  0.67473973  0.57843640  0.58344032     0.15200
H504        H  0.59350660  0.41377213  0.58458390     0.15000
C505        C  0.22337926  0.40843404  0.57570543    -0.17900
C506        C  0.17750457  0.40928911  0.57558140    -0.20100
C507        C  0.17647204  0.45326244  0.58002692     0.20600
C508        C  0.22201255  0.49677679  0.58471456    -0.03000
C509        C  0.26832789  0.49592523  0.58482983    -0.06100
C510        C  0.26897037  0.45154768  0.58026974     0.20800
C511        C  0.31399318  0.53956911  0.58938530     0.19000
C512        C  0.31280339  0.58331118  0.59402632    -0.17600
C513        C  0.26685912  0.58412649  0.59393282    -0.19800
C514        C  0.22135881  0.54123004  0.58918327     0.20500
C515        C  0.17528800  0.54204380  0.58876256    -0.32800
C516        C  0.12979060  0.49881177  0.58405755     0.01200
C517        C  0.13071215  0.45450145  0.57979505    -0.24100
C518        C  0.31523055  0.45117687  0.58022108    -0.28700
C519        C  0.36104237  0.49482742  0.58446662     0.06900
C520        C  0.36007219  0.53882009  0.58910207    -0.27400
H521        H  0.22323762  0.37409769  0.57216495     0.11600
H522        H  0.14282586  0.37557602  0.57195482     0.12700
H523        H  0.34749644  0.61704163  0.59763578     0.11800
H524        H  0.26698342  0.61844876  0.59747978     0.11000
H525        H  0.17478706  0.57616865  0.59220147     0.16400
H526        H  0.09583494  0.42102071  0.57613949     0.12300
H527        H  0.31571507  0.41719789  0.57661093     0.15200
H528        H  0.39518783  0.57247015  0.59253382     0.15000
C529        C  0.03953157  0.44771357  0.67464861    -0.17900
C530        C  0.03923197  0.44735729  0.65916568    -0.20100
C531        C  0.01718563  0.47152510  0.65129718     0.20600
C532        C  0.99551137  0.49661028  0.65910495    -0.03000
C533        C  0.99524044  0.49639630  0.67471695    -0.06100
C534        C  0.01739345  0.47186107  0.68252028     0.20800
C535        C  0.97272004  0.52065455  0.68249960     0.19000
C536        C  0.95105569  0.54520427  0.67463831    -0.17600
C537        C  0.95189767  0.54598923  0.65917341    -0.19800
C538        C  0.97404862  0.52188174  0.65131727     0.20500
C539        C  0.97509748  0.52255421  0.63581536    -0.32800
C540        C  0.99586387  0.49698678  0.62803982     0.01200
C541        C  0.01646412  0.47118530  0.63577220    -0.24100
C542        C  0.01684145  0.47173589  0.69804582    -0.28700
C543        C  0.99409777  0.49552206  0.70589547     0.06900
C544        C  0.97217377  0.51993123  0.69800341    -0.27400
H545        H  0.05681239  0.42881057  0.68047127     0.11600
H546        H  0.05628718  0.42820268  0.65334271     0.12700
H547        H  0.93358494  0.56396331  0.68045756     0.11800
H548        H  0.93509735  0.56535697  0.65335252     0.11000
H549        H  0.95900350  0.54218401  0.62975941     0.16400
H550        H  0.03278437  0.45180242  0.62968241     0.12300
H551        H  0.03389986  0.45285298  0.70400034     0.15200
H552        H  0.95466037  0.53848948  0.70391563     0.15000
C553        C  0.69755846  0.93774865  0.60333312    -0.17900
C554        C  0.74467657  0.93928519  0.60348329    -0.20100
C555        C  0.78323507  0.97019247  0.59343184     0.20600
C556        C  0.77445960  0.00029408  0.58322024    -0.03000
C557        C  0.72692114  0.99870933  0.58305987    -0.06100
C558        C  0.68820074  0.96708286  0.59312575     0.20800
C559        C  0.71822877  0.02890192  0.57286142     0.19000
C560        C  0.75671076  0.05969704  0.56278531    -0.17600
C561        C  0.80380116  0.06124573  0.56293933    -0.19800
C562        C  0.81318818  0.03202455  0.57317239     0.20500
C563        C  0.86055772  0.03388929  0.57352179    -0.32800
C564        C  0.86914281  0.00344426  0.58350766     0.01200
C565        C  0.83036852  0.97149882  0.59337806    -0.24100
C566        C  0.64097463  0.96561953  0.59284294    -0.28700
C567        C  0.63263990  0.99638279  0.58290051     0.06900
C568        C  0.67132715  0.02798444  0.57297825    -0.27400
H569        H  0.66838812  0.91354205  0.61119273     0.11600
H570        H  0.75092423  0.91619138  0.61144635     0.12700
H571        H  0.75047521  0.08280833  0.55482567     0.11800
H572        H  0.83298117  0.08548093  0.55508614     0.11000
H573        H  0.89043738  0.05818977  0.56583485     0.16400
H574        H  0.83723771  0.94822355  0.60112906     0.12300
H575        H  0.61112215  0.94154539  0.60056715     0.15200
H576        H  0.66461811  0.05146148  0.56526149     0.15000
C577        C  0.27704854  0.09513738  0.57891599    -0.17900
C578        C  0.32284166  0.09399269  0.57898357    -0.20100
C579        C  0.32264492  0.04815050  0.58165502     0.20600
C580        C  0.27589635  0.00307424  0.58438265    -0.03000
C581        C  0.22968305  0.00423326  0.58431608    -0.06100
C582        C  0.23024605  0.05046233  0.58152610     0.20800
C583        C  0.18293450  0.95906139  0.58694941     0.19000
C584        C  0.18278039  0.91336083  0.58980740    -0.17600
C585        C  0.22853507  0.91221658  0.58987392    -0.19800
C586        C  0.27523709  0.95675139  0.58707722     0.20500
C587        C  0.32118898  0.95566460  0.58683810    -0.32800
C588        C  0.36796313  0.00035498  0.58401408     0.01200
C589        C  0.36831293  0.04654099  0.58154571    -0.24100
C590        C  0.18402449  0.05113190  0.58132451    -0.28700
C591        C  0.13716098  0.00606396  0.58377126     0.06900
C592        C  0.13710812  0.96025097  0.58661783    -0.27400
H593        H  0.27822970  0.13096221  0.57676642     0.11600
H594        H  0.35843418  0.12896952  0.57688074     0.12700
H595        H  0.14719194  0.87838387  0.59191437     0.11800
H596        H  0.22735031  0.87639182  0.59202702     0.11000
H597        H  0.32049529  0.91999408  0.58887209     0.16400
H598        H  0.40410631  0.08125137  0.57937055     0.12300
H599        H  0.18452644  0.08661843  0.57912447     0.15200
H600        H  0.10131713  0.92535827  0.58863487     0.15000
C601        C  0.00389971  0.08698643  0.67484807    -0.17900
C602        C  0.00656848  0.08856203  0.65937477    -0.20100
C603        C  0.00517835  0.04803568  0.65136687     0.20600
C604        C  0.00120938  0.00556712  0.65904360    -0.03000
C605        C  0.99929634  0.00432634  0.67465103    -0.06100
C606        C  0.00032990  0.04509945  0.68258961     0.20800
C607        C  0.99639758  0.96228239  0.68229814     0.19000
C608        C  0.99457860  0.92157124  0.67431234    -0.17600
C609        C  0.99567049  0.92244036  0.65885481    -0.19800
C610        C  0.99907164  0.96424730  0.65113553     0.20500
C611        C  0.00018285  0.96529924  0.63564477    -0.32800
C612        C  0.00428340  0.00746545  0.62789773     0.01200
C613        C  0.00729850  0.04898580  0.63583288    -0.24100
C614        C  0.99806135  0.04332062  0.69811461    -0.28700
C615        C  0.99617787  0.00195122  0.70577509     0.06900
C616        C  0.99546759  0.96168213  0.69779549    -0.27400
H617        H  0.00485486  0.11865830  0.68076676     0.11600
H618        H  0.00948131  0.12139756  0.65366447     0.12700
H619        H  0.99218822  0.88896652  0.68002589     0.11800
H620        H  0.99402026  0.89044859  0.65293190     0.11000
H621        H  0.99822337  0.93334621  0.62960045     0.16400
H622        H  0.01013986  0.08146702  0.62991458     0.12300
H623        H  0.99888294  0.07457907  0.70425117     0.15200
H624        H  0.99352845  0.92950993  0.70366835     0.15000
C625        C  0.48358288  0.57265960  0.82600554    -0.17900
C626        C  0.48390893  0.57301200  0.84148224    -0.20100
C627        C  0.48801150  0.53525643  0.84936526     0.20600
C628        C  0.49173562  0.49670191  0.84159530    -0.03000
C629        C  0.49143452  0.49636371  0.82599506    -0.06100
C630        C  0.48734652  0.53454164  0.81816755     0.20800
C631        C  0.49558724  0.45802484  0.81824318     0.19000
C632        C  0.49918267  0.41999201  0.82612142    -0.17600
C633        C  0.49944515  0.42030651  0.84158179    -0.19800
C634        C  0.49616936  0.45868824  0.84940217     0.20500
C635        C  0.49768883  0.45994008  0.86488667    -0.32800
C636        C  0.49430263  0.49837123  0.87268524     0.01200
C637        C  0.48891904  0.53560364  0.86487058    -0.24100
C638        C  0.48739735  0.53406114  0.80264957    -0.28700
C639        C  0.49228640  0.49637564  0.79487719     0.06900
C640        C  0.49633624  0.45850416  0.80275010    -0.27400
H641        H  0.48052807  0.60229486  0.82016262     0.11600
H642        H  0.48112151  0.60292376  0.84728802     0.12700
H643        H  0.50211060  0.39015479  0.82032024     0.11800
H644        H  0.50259135  0.39072282  0.84742493     0.11000
H645        H  0.50132007  0.43086279  0.87087841     0.16400
H646        H  0.48643312  0.56541999  0.87084932     0.12300
H647        H  0.48449254  0.56348994  0.79662117     0.15200
H648        H  0.49966977  0.42911502  0.79680395     0.15000
C649        C  0.44299852  0.04020052  0.82583965    -0.17900
C650        C  0.44502217  0.04147180  0.84131223    -0.20100
C651        C  0.47257912  0.02254696  0.84894175     0.20600
C652        C  0.49828022  0.00206640  0.84090762    -0.03000
C653        C  0.49621342  0.00075540  0.82531581    -0.06100
C654        C  0.46849818  0.01998092  0.81774352     0.20800
C655        C  0.52191111  0.98020925  0.81732106     0.19000
C656        C  0.54940064  0.96121500  0.82492478    -0.17600
C657        C  0.55144433  0.96251090  0.84036673    -0.19800
C658        C  0.52601053  0.98280209  0.84844140     0.20500
C659        C  0.52769879  0.98393168  0.86392083    -0.32800
C660        C  0.50205335  0.00407543  0.87203986     0.01200
C661        C  0.47471726  0.02352364  0.86445300    -0.24100
C662        C  0.46687638  0.01870952  0.80222394    -0.28700
C663        C  0.49253507  0.99833895  0.79419351     0.06900
C664        C  0.51982492  0.97906691  0.80185707    -0.27400
H665        H  0.42150502  0.05506859  0.82020391     0.11600
H666        H  0.42501234  0.05725828  0.84731478     0.12700
H667        H  0.56934143  0.94534554  0.81892444     0.11800
H668        H  0.57288804  0.94757855  0.84599903     0.11000
H669        H  0.54893120  0.96891220  0.86964012     0.16400
H670        H  0.45471047  0.03901819  0.87060398     0.12300
H671        H  0.44564248  0.03355291  0.79641983     0.15200
H672        H  0.53979175  0.96333910  0.79579257     0.15000
C673        C  0.72901645  0.32071644  0.92305297    -0.17900
C674        C  0.68285512  0.27426439  0.92271678    -0.20100
C675        C  0.68267411  0.22810103  0.92073205     0.20600
C676        C  0.72951785  0.22869231  0.91929391    -0.03000
C677        C  0.77609691  0.27555494  0.91964926    -0.06100
C678        C  0.77580365  0.32180633  0.92141067     0.20800
C679        C  0.82287895  0.27611488  0.91806505     0.19000
C680        C  0.82276704  0.22992373  0.91632370    -0.17600
C681        C  0.77664784  0.18352587  0.91596269    -0.19800
C682        C  0.72985275  0.18253027  0.91735301     0.20500
C683        C  0.68343684  0.13619520  0.91673856    -0.32800
C684        C  0.63647410  0.13521888  0.91799934     0.01200
C685        C  0.63650967  0.18143291  0.92006643    -0.24100
C686        C  0.82221331  0.36832486  0.92130086    -0.28700
C687        C  0.86900646  0.36925491  0.91945591     0.06900
C688        C  0.86892690  0.32284187  0.91804090    -0.27400
H689        H  0.72809483  0.35584322  0.92447450     0.11600
H690        H  0.64723796  0.27448615  0.92390072     0.12700
H691        H  0.85837809  0.22970004  0.91512105     0.11800
H692        H  0.77757260  0.14841434  0.91450319     0.11000
H693        H  0.68395976  0.10089303  0.91519101     0.16400
H694        H  0.60061088  0.18117469  0.92114246     0.12300
H695        H  0.82180531  0.40379781  0.92252037     0.15200
H696        H  0.90469468  0.32301929  0.91666559     0.15000
C697        C  0.18427872  0.77567919  0.91335420    -0.17900
C698        C  0.23087359  0.82162698  0.91327075    -0.20100
C699        C  0.27714269  0.82168189  0.91491814     0.20600
C700        C  0.27651847  0.77505198  0.91675107    -0.03000
C701        C  0.22947842  0.72866714  0.91682896    -0.06100
C702        C  0.18316602  0.72901530  0.91508051     0.20800
C703        C  0.22883506  0.68200120  0.91859319     0.19000
C704        C  0.27508292  0.68211777  0.92042887    -0.17600
C705        C  0.32169760  0.72809049  0.92035565    -0.19800
C706        C  0.32285934  0.77472277  0.91844529     0.20500
C707        C  0.36949711  0.82097919  0.91817144    -0.32800
C708        C  0.37043713  0.86765069  0.91629477     0.01200
C709        C  0.32398228  0.86756849  0.91472801    -0.24100
C710        C  0.13658882  0.68273278  0.91503972    -0.28700
C711        C  0.13562700  0.63597408  0.91663999     0.06900
C712        C  0.18200605  0.63603275  0.91845115    -0.27400
H713        H  0.14908442  0.77663976  0.91202006     0.11600
H714        H  0.23072582  0.85714278  0.91187589     0.12700
H715        H  0.27521985  0.64660928  0.92185875     0.11800
H716        H  0.35688560  0.72714555  0.92173280     0.11000
H717        H  0.40501398  0.82060932  0.91948905     0.16400
H718        H  0.32418310  0.90326056  0.91329353     0.12300
H719        H  0.10111441  0.68315342  0.91367057     0.15200
H720        H  0.18173299  0.60028194  0.91982161     0.15000
C721        C  0.94661936  0.54359836  0.82634161    -0.17900
C722        C  0.94751716  0.54443889  0.84182279    -0.20100
C723        C  0.97004171  0.52068322  0.84967294     0.20600
C724        C  0.99162020  0.49559201  0.84184327    -0.03000
C725        C  0.99072436  0.49475315  0.82623323    -0.06100
C726        C  0.96822143  0.51898077  0.81845038     0.20800
C727        C  0.01258095  0.46988951  0.81843036     0.19000
C728        C  0.03482194  0.44586368  0.82626630    -0.17600
C729        C  0.03568853  0.44667390  0.84172522    -0.19800
C730        C  0.01435768  0.47154933  0.84959631     0.20500
C731        C  0.01568402  0.47301200  0.86508160    -0.32800
C732        C  0.99467072  0.49827409  0.87299852     0.01200
C733        C  0.97164847  0.52182113  0.86519667    -0.24100
C734        C  0.96792371  0.51835559  0.80292568    -0.28700
C735        C  0.98993434  0.49389234  0.79506025     0.06900
C736        C  0.01204754  0.46963322  0.80293070    -0.27400
H737        H  0.92915273  0.56235364  0.82053617     0.11600
H738        H  0.93073640  0.56383329  0.84765747     0.12700
H739        H  0.05170569  0.42656239  0.82043379     0.11800
H740        H  0.05323432  0.42798988  0.84752881     0.11000
H741        H  0.03338336  0.45460009  0.87095866     0.16400
H742        H  0.95524582  0.54130765  0.87118106     0.12300
H743        H  0.95077141  0.53717065  0.79698313     0.15200
H744        H  0.02904492  0.45059845  0.79700493     0.15000
C745        C  0.77491053  0.68037565  0.91602914    -0.17900
C746        C  0.82156932  0.72626777  0.91646716    -0.20100
C747        C  0.82264031  0.77318993  0.91707228     0.20600
C748        C  0.77622238  0.77387251  0.91723382    -0.03000
C749        C  0.72913800  0.72756586  0.91678086    -0.06100
C750        C  0.72852970  0.68063175  0.91618774     0.20800
C751        C  0.68273216  0.72827482  0.91694873     0.19000
C752        C  0.68380080  0.77518714  0.91753653    -0.17600
C753        C  0.73043970  0.82105998  0.91797557    -0.19800
C754        C  0.77680208  0.82079377  0.91783383     0.20500
C755        C  0.82368447  0.86665083  0.91821586    -0.32800
C756        C  0.87019894  0.86640485  0.91796825     0.01200
C757        C  0.86927711  0.81940343  0.91745267    -0.24100
C758        C  0.68159053  0.63478045  0.91583622    -0.28700
C759        C  0.63507972  0.63508863  0.91609993     0.06900
C760        C  0.63607981  0.68210701  0.91659908    -0.27400
H761        H  0.77510397  0.64465206  0.91557896     0.11600
H762        H  0.85684723  0.72505243  0.91632718     0.12700
H763        H  0.64852717  0.77640933  0.91767229     0.11800
H764        H  0.73024303  0.85678197  0.91842239     0.11000
H765        H  0.82385779  0.90257865  0.91860377     0.16400
H766        H  0.90483645  0.81871055  0.91725164     0.12300
H767        H  0.68136574  0.59882584  0.91546497     0.15200
H768        H  0.60054848  0.68285252  0.91681145     0.15000
C769        C  0.22780491  0.31938120  0.91546721    -0.17900
C770        C  0.18201578  0.27264650  0.91501177    -0.20100
C771        C  0.18236687  0.22652959  0.91619560     0.20600
C772        C  0.22926897  0.22746967  0.91795212    -0.03000
C773        C  0.27549087  0.27465091  0.91842458    -0.06100
C774        C  0.27473445  0.32079506  0.91710938     0.20800
C775        C  0.32242559  0.27559346  0.92009209     0.19000
C776        C  0.32272560  0.22949272  0.92144676    -0.17600
C777        C  0.27693056  0.18274933  0.92098397    -0.19800
C778        C  0.23004063  0.18130656  0.91916775     0.20500
C779        C  0.18395939  0.13454447  0.91856097    -0.32800
C780        C  0.13697816  0.13325528  0.91683039     0.01200
C781        C  0.13663305  0.17953635  0.91565993    -0.24100
C782        C  0.32090651  0.36749545  0.91728225    -0.28700
C783        C  0.36797437  0.36874960  0.91865251     0.06900
C784        C  0.36826835  0.32254710  0.92020459    -0.27400
H785        H  0.22652583  0.35443484  0.91445781     0.11600
H786        H  0.14629302  0.27257442  0.91368450     0.12700
H787        H  0.35844917  0.22956736  0.92277503     0.11800
H788        H  0.27821155  0.14769623  0.92198888     0.11000
H789        H  0.18469914  0.09919210  0.91955982     0.16400
H790        H  0.10070946  0.17908884  0.91433997     0.12300
H791        H  0.32016943  0.40280394  0.91611749     0.15200
H792        H  0.40424495  0.32300286  0.92136542     0.15000
C793        C  0.03193109  0.93960211  0.82569340    -0.17900
C794        C  0.03306113  0.94003360  0.84116439    -0.20100
C795        C  0.01303343  0.96582380  0.84919883     0.20600
C796        C  0.99078801  0.99062947  0.84158884    -0.03000
C797        C  0.98962950  0.99017600  0.82597900    -0.06100
C798        C  0.01072888  0.96492988  0.81800401     0.20800
C799        C  0.96799497  0.01556287  0.81836765     0.19000
C800        C  0.94700453  0.04044123  0.82640816    -0.17600
C801        C  0.94814489  0.04088318  0.84187670    -0.19800
C802        C  0.97031103  0.01646934  0.84955856     0.20500
C803        C  0.97290094  0.01798974  0.86505440    -0.32800
C804        C  0.99593003  0.99421742  0.87272249     0.01200
C805        C  0.01542708  0.96774825  0.86469396    -0.24100
C806        C  0.01082832  0.96597249  0.80249093    -0.28700
C807        C  0.99013004  0.99196674  0.79480955     0.06900
C808        C  0.96828188  0.01619194  0.80285787    -0.27400
H809        H  0.04808583  0.91984670  0.81973710     0.11600
H810        H  0.05006361  0.92060049  0.84684594     0.12700
H811        H  0.93009736  0.05996602  0.82072768     0.11800
H812        H  0.93209457  0.06073672  0.84783264     0.11000
H813        H  0.95745219  0.03820097  0.87112255     0.16400
H814        H  0.03283806  0.94889032  0.87048398     0.12300
H815        H  0.02744233  0.94686800  0.79641352     0.15200
H816        H  0.95200753  0.03613104  0.79706872     0.15000
C817        C  0.59661478  0.52902646  0.99216018    -0.17900
C818        C  0.59735756  0.53066826  0.00762128    -0.20100
C819        C  0.55324174  0.52041151  0.01552689     0.20600
C820        C  0.50806470  0.50891521  0.00780697    -0.03000
C821        C  0.50752034  0.50798748  0.99223772    -0.06100
C822        C  0.55188395  0.51758310  0.98438193     0.20800
C823        C  0.46252840  0.49730644  0.98453999     0.19000
C824        C  0.41842615  0.48706613  0.99242760    -0.17600
C825        C  0.41875737  0.48724183  0.00787294    -0.19800
C826        C  0.46333515  0.49812658  0.01563549     0.20500
C827        C  0.46386996  0.49822440  0.03109557    -0.32800
C828        C  0.50867992  0.50957709  0.03885402     0.01200
C829        C  0.55336491  0.52106889  0.03101383    -0.24100
C830        C  0.55063987  0.51559240  0.96889324    -0.28700
C831        C  0.50611825  0.50566565  0.96125228     0.06900
C832        C  0.46239303  0.49693372  0.96908153    -0.27400
H833        H  0.63102427  0.53673421  0.98628505     0.11600
H834        H  0.63233164  0.53959604  0.01340010     0.12700
H835        H  0.38360931  0.47868543  0.98664845     0.11800
H836        H  0.38416963  0.47894392  0.01374963     0.11000
H837        H  0.42939733  0.48971664  0.03708722     0.16400
H838        H  0.58799807  0.52969290  0.03695359     0.12300
H839        H  0.58446101  0.52273681  0.96276548     0.15200
H840        H  0.42798542  0.48894226  0.96310758     0.15000
C841        C  0.41365395  0.68707872  0.08744269    -0.17900
C842        C  0.41332793  0.73320447  0.08742735    -0.20100
C843        C  0.45887792  0.77968347  0.08537126     0.20600
C844        C  0.50522814  0.77967146  0.08330909    -0.03000
C845        C  0.50556214  0.73314045  0.08332778    -0.06100
C846        C  0.45954230  0.68664701  0.08540257     0.20800
C847        C  0.55194812  0.73319580  0.08128737     0.19000
C848        C  0.59746593  0.77962942  0.07917473    -0.17600
C849        C  0.59713571  0.82571445  0.07915166    -0.19800
C850        C  0.55127823  0.82613038  0.08124571     0.20500
C851        C  0.55074805  0.87222170  0.08132484    -0.32800
C852        C  0.50475148  0.87267144  0.08338657     0.01200
C853        C  0.45891280  0.82613799  0.08536096    -0.24100
C854        C  0.46021113  0.64056810  0.08541144    -0.28700
C855        C  0.50635426  0.64029742  0.08344422     0.06900
C856        C  0.55205561  0.68686740  0.08139615    -0.27400
H857        H  0.37798745  0.65171765  0.08905790     0.11600
H858        H  0.37741093  0.73251772  0.08903293     0.12700
H859        H  0.63338219  0.78031964  0.07756149     0.11800
H860        H  0.63279763  0.86107056  0.07752280     0.11000
H861        H  0.58626029  0.90778033  0.07971783     0.16400
H862        H  0.42326426  0.82602662  0.08696371     0.12300
H863        H  0.42477657  0.60493653  0.08701988     0.15200
H864        H  0.58778011  0.68712006  0.07980449     0.15000
C865        C  0.60055909  0.32667499  0.08531926    -0.17900
C866        C  0.60033518  0.28026666  0.08526359    -0.20100
C867        C  0.55433513  0.23393889  0.08349375     0.20600
C868        C  0.50814107  0.23440659  0.08165521    -0.03000
C869        C  0.50836596  0.28124060  0.08171054    -0.06100
C870        C  0.55477983  0.32756388  0.08360684     0.20800
C871        C  0.46210438  0.28163466  0.07996981     0.19000
C872        C  0.41619086  0.23537587  0.07802701    -0.17600
C873        C  0.41596468  0.18899840  0.07797632    -0.19800
C874        C  0.46165673  0.18808704  0.07986377     0.20500
C875        C  0.46157299  0.14164535  0.08007769    -0.32800
C876        C  0.50738742  0.14073279  0.08201664     0.01200
C877        C  0.55368152  0.18717895  0.08362466    -0.24100
C878        C  0.55456758  0.37389922  0.08384922    -0.28700
C879        C  0.50848966  0.37459231  0.08229105     0.06900
C880        C  0.46246425  0.32819957  0.08028765    -0.27400
H881        H  0.63654189  0.36188275  0.08676756     0.11600
H882        H  0.63616123  0.28060426  0.08667086     0.12700
H883        H  0.38035973  0.23503314  0.07662592     0.11800
H884        H  0.37997439  0.15379124  0.07653791     0.11000
H885        H  0.42572499  0.10618175  0.07874570     0.16400
H886        H  0.58923051  0.18699668  0.08511495     0.12300
H887        H  0.59027378  0.40937001  0.08537263     0.15200
H888        H  0.42677254  0.32822884  0.07898286     0.15000
C889        C  0.59724521  0.04104465  0.00724496    -0.17900
C890        C  0.59699732  0.03926095  0.99178759    -0.20100
C891        C  0.55063593  0.01718453  0.98396657     0.20600
C892        C  0.50397791  0.99626997  0.99178130    -0.03000
C893        C  0.50422663  0.99750813  0.00737351    -0.06100
C894        C  0.55111845  0.02038923  0.01512301     0.20800
C895        C  0.45760928  0.97630148  0.01518801     0.19000
C896        C  0.41119959  0.95375274  0.00736379    -0.17600
C897        C  0.41095703  0.95312840  0.99189448    -0.19800
C898        C  0.45710568  0.97465593  0.98401590     0.20500
C899        C  0.45732317  0.97550082  0.96851756    -0.32800
C900        C  0.50365384  0.99628511  0.96076528     0.01200
C901        C  0.55007841  0.01625156  0.96847002    -0.24100
C902        C  0.55111422  0.02245688  0.03060862    -0.28700
C903        C  0.50483483  0.00168510  0.03848892     0.06900
C904        C  0.45821496  0.97836204  0.03068077    -0.27400
H905        H  0.63354860  0.05867335  0.01304242     0.11600
H906        H  0.63309799  0.05556557  0.98594337     0.12700
H907        H  0.37508423  0.93710114  0.01320999     0.11800
H908        H  0.37468105  0.93606377  0.98609029     0.11000
H909        H  0.42156785  0.95972466  0.96245485     0.16400
H910        H  0.58573332  0.03240737  0.96237496     0.12300
H911        H  0.58723591  0.04027483  0.03651253     0.15200
H912        H  0.42231686  0.96207496  0.03664069     0.15000
C913        C  0.91740124  0.46446851  0.00849678    -0.17900
C914        C  0.91700312  0.46685887  0.99307620    -0.20100
C915        C  0.96268339  0.48565459  0.98508484     0.20600
C916        C  0.00927063  0.50194473  0.99266172    -0.03000
C917        C  0.00974861  0.50018664  0.00822753    -0.06100
C918        C  0.96355077  0.48129793  0.01614982     0.20800
C919        C  0.05638595  0.51744129  0.01584942     0.19000
C920        C  0.10202382  0.53575127  0.00782813    -0.17600
C921        C  0.10146467  0.53678280  0.99235960    -0.19800
C922        C  0.05532318  0.51996596  0.98468692     0.20500
C923        C  0.05425973  0.52069250  0.96918924    -0.32800
C924        C  0.00804121  0.50517185  0.96169568     0.01200
C925        C  0.96255892  0.48820068  0.96964040    -0.24100
C926        C  0.96426069  0.47988969  0.03159919    -0.28700
C927        C  0.01059291  0.49765686  0.03930154     0.06900
C928        C  0.05653874  0.51625442  0.03135015    -0.27400
H929        H  0.88163865  0.44978885  0.01444808     0.11600
H930        H  0.88095200  0.45394019  0.98739572     0.12700
H931        H  0.13813638  0.54914298  0.01351808     0.11800
H932        H  0.13713482  0.55087452  0.98639749     0.11000
H933        H  0.08930690  0.53390661  0.96294460     0.16400
H934        H  0.92692220  0.47575466  0.96374423     0.12300
H935        H  0.92865066  0.46550946  0.03762425     0.15200
H936        H  0.09241134  0.52982902  0.03720289     0.15000
C937        C  0.09909493  0.76896931  0.07720055    -0.17900
C938        C  0.09865000  0.81502747  0.07720738    -0.20100
C939        C  0.05381743  0.81590497  0.08074961     0.20600
C940        C  0.00900977  0.76995303  0.08436184    -0.03000
C941        C  0.00945798  0.72345594  0.08435121    -0.06100
C942        C  0.05472320  0.72299611  0.08073832     0.20800
C943        C  0.96457469  0.67746165  0.08788629     0.19000
C944        C  0.91987061  0.67840790  0.09155722    -0.17600
C945        C  0.91943679  0.72447366  0.09157449    -0.19800
C946        C  0.96368404  0.77038518  0.08791150     0.20500
C947        C  0.96331979  0.81663411  0.08766903    -0.32800
C948        C  0.00778374  0.86260858  0.08401645     0.01200
C949        C  0.05297164  0.86188241  0.08066474    -0.24100
C950        C  0.05478554  0.67659355  0.08067187    -0.28700
C951        C  0.01004764  0.63047599  0.08403831     0.06900
C952        C  0.96510567  0.63131951  0.08764719    -0.27400
H953        H  0.13415943  0.76929888  0.07439260     0.11600
H954        H  0.13337424  0.84997812  0.07440201     0.12700
H955        H  0.88514087  0.64345533  0.09435679     0.11800
H956        H  0.88437512  0.72414553  0.09438481     0.11000
H957        H  0.92843183  0.81682641  0.09038099     0.16400
H958        H  0.08744217  0.89705787  0.07782194     0.12300
H959        H  0.08956924  0.67635360  0.07784616     0.15200
H960        H  0.93052605  0.59606531  0.09036040     0.15000
C961        C  0.09702421  0.31292951  0.09164083    -0.17900
C962        C  0.09657926  0.26643700  0.09156236    -0.20100
C963        C  0.05234032  0.22118649  0.08737782     0.20600
C964        C  0.00801713  0.22272187  0.08327694    -0.03000
C965        C  0.00846114  0.26965987  0.08336013    -0.06100
C966        C  0.05322976  0.31496731  0.08753711     0.20800
C967        C  0.96412743  0.27121043  0.07927986     0.19000
C968        C  0.91991577  0.22596208  0.07506733    -0.17600
C969        C  0.91947872  0.17945588  0.07498239    -0.19800
C970        C  0.96324872  0.17739412  0.07911178     0.20500
C971        C  0.96302062  0.13083637  0.07916340    -0.32800
C972        C  0.00712757  0.12901829  0.08320182     0.01200
C973        C  0.05166815  0.17446155  0.08724875    -0.24100
C974        C  0.05343492  0.36149206  0.08755129    -0.28700
C975        C  0.00930603  0.36333704  0.08357941     0.06900
C976        C  0.96476690  0.31794010  0.07948459    -0.27400
H977        H  0.13166646  0.34732737  0.09490710     0.11600
H978        H  0.13089627  0.26588264  0.09477213     0.12700
H979        H  0.88559725  0.22651807  0.07186038     0.11800
H980        H  0.88484061  0.14505742  0.07171384     0.11000
H981        H  0.92859960  0.09608195  0.07595625     0.16400
H982        H  0.08577605  0.17344872  0.09044461     0.12300
H983        H  0.08785326  0.39620726  0.09078481     0.15200
H984        H  0.93065101  0.31899777  0.07632679     0.15000
C985        C  0.00578289  0.91730161  0.99222540    -0.17900
C986        C  0.00462939  0.91589686  0.00768518    -0.20100
C987        C  0.00581884  0.95607134  0.01580158     0.20600
C988        C  0.00796319  0.99804105  0.00828213    -0.03000
C989        C  0.00855818  0.99917370  0.99269281    -0.06100
C990        C  0.00772595  0.95870500  0.98464504     0.20800
C991        C  0.00981819  0.04068594  0.98516996     0.19000
C992        C  0.01127976  0.08100847  0.99329086    -0.17600
C993        C  0.01126927  0.08017596  0.00875815    -0.19800
C994        C  0.00947129  0.03885654  0.01633921     0.20500
C995        C  0.00919529  0.03757111  0.03183068    -0.32800
C996        C  0.00701573  0.99590239  0.03925978     0.01200
C997        C  0.00507464  0.95517719  0.03130030    -0.24100
C998        C  0.00845261  0.96016130  0.96915654    -0.28700
C999        C  0.00870354  0.00087897  0.96161270     0.06900
C1000       C  0.00934484  0.04099388  0.96966398    -0.27400
H1001       H  0.00495815  0.88588965  0.98619043     0.11600
H1002       H  0.00298185  0.88346295  0.01329738     0.12700
H1003       H  0.01242271  0.11320212  0.98767571     0.11800
H1004       H  0.01247039  0.11176552  0.01479445     0.11000
H1005       H  0.01055272  0.06879325  0.03813914     0.16400
H1006       H  0.00338676  0.92314918  0.03719695     0.12300
H1007       H  0.00760374  0.92900218  0.96295386     0.15200
H1008       H  0.00993697  0.07262957  0.96384858     0.15000
C1009       C  0.46953789  0.40335220  0.50716388    -0.17900
C1010       C  0.47001231  0.40359388  0.49165459    -0.20100
C1011       C  0.48108492  0.44802229  0.48381273     0.20600
C1012       C  0.49185083  0.49264500  0.49171770    -0.03000
C1013       C  0.49135760  0.49239736  0.50736445    -0.06100
C1014       C  0.48012566  0.44753259  0.51513131     0.20800
C1015       C  0.50228579  0.53713820  0.51521854     0.19000
C1016       C  0.51312734  0.58148675  0.50740346    -0.17600
C1017       C  0.51361503  0.58173346  0.49193579    -0.19800
C1018       C  0.50326295  0.53763545  0.48400385     0.20500
C1019       C  0.50424743  0.53790783  0.46849682    -0.32800
C1020       C  0.49354007  0.49369832  0.46047788     0.01200
C1021       C  0.48171917  0.44873020  0.46823676    -0.24100
C1022       C  0.47992246  0.44776230  0.53070356    -0.28700
C1023       C  0.49136851  0.49247415  0.53862417     0.06900
C1024       C  0.50241465  0.53692641  0.53074382    -0.27400
H1025       H  0.46092771  0.36857065  0.51293249     0.11600
H1026       H  0.46174505  0.36899581  0.48579038     0.12700
H1027       H  0.52143125  0.61610556  0.51326221     0.11800
H1028       H  0.52227164  0.61653513  0.48616970     0.11000
H1029       H  0.51302573  0.57264187  0.46265816     0.16400
H1030       H  0.47354229  0.41449008  0.46217303     0.12300
H1031       H  0.47150471  0.41332233  0.53664769     0.15200
H1032       H  0.51095352  0.57146633  0.53670025     0.15000
C1033       C  0.47285567  0.90766678  0.49178454    -0.17900
C1034       C  0.47287482  0.90716788  0.50726459    -0.20100
C1035       C  0.48551107  0.95173185  0.51529866     0.20600
C1036       C  0.49843729  0.99729316  0.50765983    -0.03000
C1037       C  0.49842288  0.99779813  0.49205664    -0.06100
C1038       C  0.48550270  0.95274533  0.48408671     0.20800
C1039       C  0.51141077  0.04341652  0.48444726     0.19000
C1040       C  0.52399313  0.08795854  0.49246520    -0.17600
C1041       C  0.52402438  0.08746346  0.50792113    -0.19800
C1042       C  0.51143351  0.04240917  0.51560020     0.20500
C1043       C  0.51162375  0.04176211  0.53108230    -0.32800
C1044       C  0.49861044  0.99652863  0.53879464     0.01200
C1045       C  0.48548490  0.95158779  0.53082260    -0.24100
C1046       C  0.48560948  0.95363306  0.46857058    -0.28700
C1047       C  0.49892287  0.99910943  0.46091837     0.06900
C1048       C  0.51172462  0.04379622  0.46895478    -0.27400
H1049       H  0.46294636  0.87277408  0.48582975     0.11600
H1050       H  0.46296625  0.87190057  0.51295491     0.12700
H1051       H  0.53393280  0.12323927  0.48677818     0.11800
H1052       H  0.53397411  0.12237147  0.51387389     0.11000
H1053       H  0.52157810  0.07652458  0.53712967     0.16400
H1054       H  0.47565382  0.91661471  0.53668499     0.12300
H1055       H  0.47582244  0.91902818  0.46246178     0.15200
H1056       H  0.52170792  0.07891763  0.46315436     0.15000
C1057       C  0.95735888  0.40815389  0.50780761    -0.17900
C1058       C  0.95768435  0.40791444  0.49234282    -0.20100
C1059       C  0.97893807  0.45392895  0.48444665     0.20600
C1060       C  0.00045306  0.50071444  0.49220022    -0.03000
C1061       C  0.00013215  0.50095653  0.50782854    -0.06100
C1062       C  0.97829043  0.45441115  0.51564067     0.20800
C1063       C  0.02142196  0.54767562  0.51561753     0.19000
C1064       C  0.04306964  0.59371984  0.50769855    -0.17600
C1065       C  0.04335641  0.59347924  0.49220483    -0.19800
C1066       C  0.02201813  0.54719214  0.48435207     0.20500
C1067       C  0.02158590  0.54652532  0.46880895    -0.32800
C1068       C  0.99973636  0.49994067  0.46099024     0.01200
C1069       C  0.97873586  0.45385671  0.46893806    -0.24100
C1070       C  0.97757874  0.45481261  0.53114533    -0.28700
C1071       C  0.99849192  0.50113176  0.53904459     0.06900
C1072       C  0.02053461  0.54748429  0.53116686    -0.27400
H1073       H  0.94054905  0.37209337  0.51364786     0.11600
H1074       H  0.94110293  0.37167696  0.48655243     0.12700
H1075       H  0.05965006  0.62995208  0.51349082     0.11800
H1076       H  0.06013315  0.62952948  0.48636024     0.11000
H1077       H  0.03796261  0.58229210  0.46281843     0.16400
H1078       H  0.96195658  0.41774560  0.46306438     0.12300
H1079       H  0.96069613  0.41886887  0.53705772     0.15200
H1080       H  0.03686082  0.58342507  0.53711570     0.15000
C1081       C  0.67660862  0.40651068  0.41119889    -0.17900
C1082       C  0.72269135  0.40602427  0.41156081    -0.20100
C1083       C  0.76927094  0.45160424  0.41351031     0.20600
C1084       C  0.76949631  0.49824518  0.41486421    -0.03000
C1085       C  0.72300744  0.49873385  0.41450536    -0.06100
C1086       C  0.67634727  0.45257538  0.41279695     0.20800
C1087       C  0.72321177  0.54531539  0.41603449     0.19000
C1088       C  0.76986188  0.59101764  0.41767555    -0.17600
C1089       C  0.81593179  0.59054047  0.41801720    -0.19800
C1090       C  0.81610241  0.54435758  0.41672008     0.20500
C1091       C  0.86205479  0.54350614  0.41732050    -0.32800
C1092       C  0.86218449  0.49713485  0.41614603     0.01200
C1093       C  0.81556808  0.45133179  0.41419247    -0.24100
C1094       C  0.63021389  0.45318448  0.41291917    -0.28700
C1095       C  0.62999113  0.49933767  0.41475923     0.06900
C1096       C  0.67676699  0.54533434  0.41610252    -0.27400
H1097       H  0.64110409  0.37076312  0.40980810     0.11600
H1098       H  0.72186285  0.36992850  0.41042441     0.12700
H1099       H  0.77069270  0.62711272  0.41881810     0.11800
H1100       H  0.85143696  0.62629366  0.41939852     0.11000
H1101       H  0.89774382  0.57905916  0.41877022     0.16400
H1102       H  0.81526571  0.41545341  0.41314103     0.12300
H1103       H  0.59443781  0.41755973  0.41171527     0.15200
H1104       H  0.67707711  0.58113746  0.41742305     0.15000
C1105       C  0.31487776  0.58996279  0.41982597    -0.17900
C1106       C  0.26851595  0.58986852  0.41974663    -0.20100
C1107       C  0.22240640  0.54451622  0.41702956     0.20600
C1108       C  0.22302314  0.49892264  0.41416347    -0.03000
C1109       C  0.26981713  0.49902995  0.41422955    -0.06100
C1110       C  0.31587569  0.54471472  0.41718010     0.20800
C1111       C  0.27041839  0.45334332  0.41151600     0.19000
C1112       C  0.22440570  0.40821793  0.40848971    -0.17600
C1113       C  0.17800226  0.40809542  0.40844494    -0.19800
C1114       C  0.17686176  0.45310455  0.41141300     0.20500
C1115       C  0.13035676  0.45298639  0.41183842    -0.32800
C1116       C  0.12938339  0.49815261  0.41489840     0.01200
C1117       C  0.17567417  0.54387872  0.41730347    -0.24100
C1118       C  0.36207409  0.54429850  0.41757011    -0.28700
C1119       C  0.36293724  0.49874524  0.41513475     0.06900
C1120       C  0.31692710  0.45347916  0.41200622    -0.27400
H1121       H  0.34994164  0.62538196  0.42206670     0.11600
H1122       H  0.26868337  0.62520900  0.42193169     0.12700
H1123       H  0.22424604  0.37288659  0.40629616     0.11800
H1124       H  0.14293059  0.37266529  0.40622254     0.11000
H1125       H  0.09491981  0.41767996  0.40980736     0.16400
H1126       H  0.17533857  0.57890369  0.41963236     0.12300
H1127       H  0.39731883  0.57944159  0.41992400     0.15200
H1128       H  0.31723854  0.41828982  0.40995837     0.15000
C1129       C  0.97628662  0.91367608  0.50734158    -0.17900
C1130       C  0.97683866  0.91393124  0.49185138    -0.20100
C1131       C  0.98945765  0.95878498  0.48402967     0.20600
C1132       C  0.00181428  0.00387764  0.49191093    -0.03000
C1133       C  0.00126906  0.00362437  0.50753701    -0.06100
C1134       C  0.98839120  0.95828187  0.51528763     0.20800
C1135       C  0.01372419  0.04877949  0.51538735     0.19000
C1136       C  0.02625828  0.09361546  0.50758493    -0.17600
C1137       C  0.02679449  0.09386511  0.49211791    -0.19800
C1138       C  0.01476160  0.04927179  0.48419226     0.20500
C1139       C  0.01539166  0.04934107  0.46868682    -0.32800
C1140       C  0.00285916  0.00453719  0.46071092     0.01200
C1141       C  0.98989086  0.95934986  0.46848477    -0.24100
C1142       C  0.98810517  0.95842861  0.53083066    -0.28700
C1143       C  0.00107157  0.00348789  0.53873643     0.06900
C1144       C  0.01367422  0.04843836  0.53089759    -0.27400
H1145       H  0.96641688  0.87855541  0.51311137     0.11600
H1146       H  0.96734461  0.87899346  0.48598477     0.12700
H1147       H  0.03579965  0.12857054  0.51345045     0.11800
H1148       H  0.03669970  0.12899943  0.48634923     0.11000
H1149       H  0.02525017  0.08432711  0.46282778     0.16400
H1150       H  0.98038570  0.92468312  0.46245220     0.12300
H1151       H  0.97843496  0.92362355  0.53676328     0.15200
H1152       H  0.02335558  0.08326635  0.53686878     0.15000
C1153       C  0.77368787  0.09650319  0.41902395    -0.17900
C1154       C  0.82043773  0.09735733  0.41897712    -0.20100
C1155       C  0.82185806  0.05191590  0.41733864     0.20600
C1156       C  0.77571251  0.00515729  0.41564866    -0.03000
C1157       C  0.72852483  0.00429308  0.41569445    -0.06100
C1158       C  0.72758034  0.05019329  0.41742984     0.20800
C1159       C  0.68235401  0.95751681  0.41407356     0.19000
C1160       C  0.68381170  0.91213279  0.41228982    -0.17600
C1161       C  0.73057700  0.91298587  0.41224486    -0.19800
C1162       C  0.77666560  0.95923732  0.41398574     0.20500
C1163       C  0.82363731  0.96031173  0.41415749    -0.32800
C1164       C  0.86984279  0.00672474  0.41593253     0.01200
C1165       C  0.86857899  0.05241268  0.41743273    -0.24100
C1166       C  0.68058053  0.04902362  0.41759067    -0.28700
C1167       C  0.63429964  0.00253972  0.41608887     0.06900
C1168       C  0.63557070  0.95692569  0.41430687    -0.27400
H1169       H  0.77358976  0.13208659  0.42035102     0.11600
H1170       H  0.85550256  0.13357641  0.42027201     0.12700
H1171       H  0.64874730  0.87591883  0.41098589     0.11800
H1172       H  0.73068091  0.87740782  0.41091028     0.11000
H1173       H  0.82413551  0.92489488  0.41289395     0.16400
H1174       H  0.90391630  0.08837340  0.41878465     0.12300
H1175       H  0.68011966  0.08442364  0.41896351     0.15200
H1176       H  0.60018805  0.92093861  0.41306845     0.15000
C1177       C  0.31591911  0.08438219  0.42999235    -0.17900
C1178       C  0.27000708  0.08522075  0.42987856    -0.20100
C1179       C  0.22661838  0.04632882  0.42275997     0.20600
C1180       C  0.22941069  0.00602149  0.41574405    -0.03000
C1181       C  0.27571620  0.00514511  0.41587174    -0.06100
C1182       C  0.31917770  0.04461011  0.42300121     0.20800
C1183       C  0.27845816  0.96473278  0.40890345     0.19000
C1184       C  0.23515310  0.92600375  0.40171201    -0.17600
C1185       C  0.18925547  0.92687342  0.40158475    -0.19800
C1186       C  0.18591301  0.96649473  0.40864419     0.20500
C1187       C  0.13981427  0.96719564  0.40877272    -0.32800
C1188       C  0.13682959  0.00730416  0.41570221     0.01200
C1189       C  0.18045560  0.04692433  0.42258102    -0.24100
C1190       C  0.36508605  0.04355274  0.42303499    -0.28700
C1191       C  0.36787618  0.00309095  0.41627217     0.06900
C1192       C  0.32441481  0.96374084  0.40926572    -0.27400
H1193       H  0.34890403  0.11486256  0.43555489     0.11600
H1194       H  0.26843920  0.11632118  0.43535950     0.12700
H1195       H  0.23671497  0.89489271  0.39623642     0.11800
H1196       H  0.15627804  0.89640433  0.39601695     0.11000
H1197       H  0.10633891  0.93676796  0.40335690     0.16400
H1198       H  0.17821246  0.07775918  0.42801301     0.12300
H1199       H  0.39851301  0.07387072  0.42850164     0.15200
H1200       H  0.32661455  0.93276125  0.40391403     0.15000
C1201       C  0.59776838  0.55278319  0.15907889    -0.17900
C1202       C  0.59713078  0.55215013  0.17453170    -0.20100
C1203       C  0.55050882  0.52821447  0.18218766     0.20600
C1204       C  0.50404319  0.50471676  0.17423570    -0.03000
C1205       C  0.50468681  0.50535368  0.15865778    -0.06100
C1206       C  0.55179362  0.52946591  0.15106150     0.20800
C1207       C  0.45822803  0.48184334  0.15069942     0.19000
C1208       C  0.41160750  0.45803997  0.15835806    -0.17600
C1209       C  0.41097029  0.45741581  0.17381564    -0.19800
C1210       C  0.45694451  0.48060453  0.18183883     0.20500
C1211       C  0.45663536  0.48021731  0.19732816    -0.32800
C1212       C  0.50280855  0.50368980  0.20532273     0.01200
C1213       C  0.54957937  0.52750370  0.19765917    -0.24100
C1214       C  0.55212953  0.52976384  0.13558232    -0.28700
C1215       C  0.50598550  0.50622513  0.12757838     0.06900
C1216       C  0.45918397  0.48245061  0.13522273    -0.27400
H1217       H  0.63422508  0.57146833  0.15339688     0.11600
H1218       H  0.63311199  0.57038847  0.18049804     0.12700
H1219       H  0.37562765  0.43985843  0.15239082     0.11800
H1220       H  0.37451334  0.43879335  0.17949714     0.11000
H1221       H  0.42040566  0.46179773  0.20314128     0.16400
H1222       H  0.58538964  0.54572892  0.20372077     0.12300
H1223       H  0.58838799  0.54827364  0.12978376     0.15200
H1224       H  0.42340508  0.46430072  0.12914510     0.15000
C1225       C  0.53565915  0.44964227  0.34026386    -0.17900
C1226       C  0.53744442  0.45135677  0.32481976    -0.20100
C1227       C  0.52087882  0.48058694  0.31705751     0.20600
C1228       C  0.50294117  0.50897999  0.32490477    -0.03000
C1229       C  0.50228457  0.50819972  0.34049443    -0.06100
C1230       C  0.51803999  0.47776748  0.34817983     0.20800
C1231       C  0.48556645  0.53754535  0.34838098     0.19000
C1232       C  0.46909541  0.56687566  0.34059365    -0.17600
C1233       C  0.46861904  0.56671377  0.32511030    -0.19800
C1234       C  0.48533722  0.53783011  0.31717528     0.20500
C1235       C  0.48462720  0.53702403  0.30166095    -0.32800
C1236       C  0.50280236  0.50908309  0.29391324     0.01200
C1237       C  0.52149175  0.48157101  0.30158124    -0.24100
C1238       C  0.51575549  0.47586970  0.36364815    -0.28700
C1239       C  0.49966285  0.50532188  0.37152503     0.06900
C1240       C  0.48527685  0.53663576  0.36390273    -0.27400
H1241       H  0.54812139  0.42634818  0.34602432     0.11600
H1242       H  0.55126228  0.42936962  0.31893694     0.12700
H1243       H  0.45608961  0.58953863  0.34648130     0.11800
H1244       H  0.45523292  0.58922840  0.31934036     0.11000
H1245       H  0.47065887  0.55854168  0.29559539     0.16400
H1246       H  0.53536923  0.46003280  0.29545750     0.12300
H1247       H  0.52732073  0.45217033  0.36961104     0.15200
H1248       H  0.47268000  0.55917663  0.37006029     0.15000
C1249       C  0.41181396  0.73324999  0.24165630    -0.17900
C1250       C  0.41231344  0.68722298  0.24161079    -0.20100
C1251       C  0.45731136  0.68648462  0.24502852     0.20600
C1252       C  0.50237035  0.73260488  0.24840813    -0.03000
C1253       C  0.50185634  0.77905883  0.24846067    -0.06100
C1254       C  0.45629396  0.77931632  0.24512501     0.20800
C1255       C  0.54685191  0.82515134  0.25191504     0.19000
C1256       C  0.59190235  0.82443109  0.25526381    -0.17600
C1257       C  0.59241167  0.77841063  0.25520885    -0.19800
C1258       C  0.54788429  0.73231815  0.25180547     0.20500
C1259       C  0.54801823  0.68595797  0.25182361    -0.32800
C1260       C  0.50311063  0.63972771  0.24862107     0.01200
C1261       C  0.45794154  0.64041175  0.24519653    -0.24100
C1262       C  0.45594727  0.82556304  0.24537490    -0.28700
C1263       C  0.50063633  0.87171195  0.24884372     0.06900
C1264       C  0.54599747  0.87112364  0.25202904    -0.27400
H1265       H  0.37654452  0.73278279  0.23903186     0.11600
H1266       H  0.37742361  0.65214997  0.23895507     0.12700
H1267       H  0.62676070  0.85948346  0.25795576     0.11800
H1268       H  0.62765531  0.77886605  0.25786206     0.11000
H1269       H  0.58296283  0.68583729  0.25451777     0.16400
H1270       H  0.42318513  0.60505558  0.24263232     0.12300
H1271       H  0.42085692  0.82559086  0.24282886     0.15200
H1272       H  0.58061487  0.90640507  0.25474842     0.15000
C1273       C  0.40820112  0.18655854  0.25654055    -0.17900
C1274       C  0.40865431  0.23309858  0.25649823    -0.20100
C1275       C  0.45405677  0.27895168  0.25360481     0.20600
C1276       C  0.49951527  0.27791481  0.25080120    -0.03000
C1277       C  0.49906145  0.23096591  0.25084699    -0.06100
C1278       C  0.45314737  0.18504701  0.25368578     0.20800
C1279       C  0.54453977  0.23002271  0.24801045     0.19000
C1280       C  0.58995268  0.27582718  0.24513869    -0.17600
C1281       C  0.59039693  0.32229578  0.24508601    -0.19800
C1282       C  0.54543613  0.32375294  0.24791604     0.20500
C1283       C  0.54564990  0.37025308  0.24788050    -0.32800
C1284       C  0.50048784  0.37170103  0.25060301     0.01200
C1285       C  0.45479766  0.32577235  0.25344448    -0.24100
C1286       C  0.45298168  0.13848140  0.25356954    -0.28700
C1287       C  0.49823397  0.13726365  0.25073223     0.06900
C1288       C  0.54385855  0.18332732  0.24803197    -0.27400
H1289       H  0.37263765  0.15171005  0.25877133     0.11600
H1290       H  0.37342066  0.23320860  0.25870168     0.12700
H1291       H  0.62517705  0.27571704  0.24291589     0.11800
H1292       H  0.62594570  0.35712883  0.24282783     0.11000
H1293       H  0.58100697  0.40531366  0.24561468     0.16400
H1294       H  0.41979778  0.32642505  0.25559599     0.12300
H1295       H  0.41766955  0.10325660  0.25572798     0.15200
H1296       H  0.57891628  0.18288269  0.24578823     0.15000
C1297       C  0.41685126  0.99334428  0.17377419    -0.17900
C1298       C  0.41750074  0.99332203  0.15831174    -0.20100
C1299       C  0.46118879  0.00095460  0.15065498     0.20600
C1300       C  0.50482709  0.00904911  0.15863349    -0.03000
C1301       C  0.50416736  0.00906142  0.17423979    -0.06100
C1302       C  0.45986651  0.00096172  0.18182660     0.20800
C1303       C  0.54773182  0.01702107  0.18223564     0.19000
C1304       C  0.59145220  0.02472392  0.17456928    -0.17600
C1305       C  0.59210466  0.02470931  0.15909230    -0.19800
C1306       C  0.54905819  0.01702323  0.15102897     0.20500
C1307       C  0.54941011  0.01709443  0.13550714    -0.32800
C1308       C  0.50591238  0.00874647  0.12749471     0.01200
C1309       C  0.46193810  0.00058932  0.13516144    -0.24100
C1310       C  0.45924246  0.00040011  0.19732723    -0.28700
C1311       C  0.50246914  0.00826899  0.20537404     0.06900
C1312       C  0.54670641  0.01688844  0.19774727    -0.27400
H1313       H  0.38261369  0.98722710  0.17943890     0.11600
H1314       H  0.38375673  0.98720964  0.15233629     0.12700
H1315       H  0.62515974  0.03074285  0.18054671     0.11800
H1316       H  0.62630877  0.03073905  0.15342614     0.11000
H1317       H  0.58333756  0.02308437  0.12966937     0.16400
H1318       H  0.42834772  0.99437321  0.12906457     0.12300
H1319       H  0.42513759  0.99407573  0.20313042     0.15200
H1320       H  0.58011195  0.02275927  0.20387847     0.15000
C1321       C  0.45302867  0.90948394  0.32528279    -0.17900
C1322       C  0.45455796  0.90986357  0.34074555    -0.20100
C1323       C  0.47706421  0.95624595  0.34855829     0.20600
C1324       C  0.49858603  0.00275618  0.34074775    -0.03000
C1325       C  0.49756594  0.00240971  0.32514963    -0.06100
C1326       C  0.47433575  0.95549550  0.31738876     0.20800
C1327       C  0.51992732  0.04898903  0.31732635     0.19000
C1328       C  0.54219836  0.09533658  0.32513979    -0.17600
C1329       C  0.54264831  0.09563862  0.34061050    -0.19800
C1330       C  0.52118095  0.04960562  0.34850983     0.20500
C1331       C  0.52193106  0.04960683  0.36402450    -0.32800
C1332       C  0.50054343  0.00336484  0.37188985     0.01200
C1333       C  0.47830373  0.95687022  0.36404548    -0.24100
C1334       C  0.47315779  0.95552375  0.30187836    -0.28700
C1335       C  0.49631762  0.00181914  0.29411875     0.06900
C1336       C  0.51978568  0.04834908  0.30183020    -0.27400
H1337       H  0.43530720  0.87319970  0.31949513     0.11600
H1338       H  0.43794724  0.87383992  0.34660125     0.12700
H1339       H  0.55928999  0.13137396  0.31928128     0.11800
H1340       H  0.56003617  0.13191095  0.34640008     0.11000
H1341       H  0.53913862  0.08562314  0.36995702     0.16400
H1342       H  0.46172130  0.92098429  0.36998180     0.12300
H1343       H  0.45540045  0.91972095  0.29581919     0.15200
H1344       H  0.53738215  0.08396506  0.29572758     0.15000
C1345       C  0.91375958  0.44024452  0.17422160    -0.17900
C1346       C  0.91473326  0.43973921  0.15877899    -0.20100
C1347       C  0.96088895  0.46890747  0.15117014     0.20600
C1348       C  0.00653878  0.49895914  0.15915710    -0.03000
C1349       C  0.00555542  0.49947779  0.17472616    -0.06100
C1350       C  0.95892828  0.46992134  0.18226835     0.20800
C1351       C  0.05120939  0.52939124  0.18273166     0.19000
C1352       C  0.09731911  0.55875492  0.17511134    -0.17600
C1353       C  0.09829211  0.55825443  0.15965532    -0.19800
C1354       C  0.05317013  0.52838244  0.15159791     0.20500
C1355       C  0.05385371  0.52740269  0.13611768    -0.32800
C1356       C  0.00847668  0.49756942  0.12810024     0.01200
C1357       C  0.96215447  0.46849189  0.13571038    -0.24100
C1358       C  0.95827752  0.47033272  0.19773041    -0.28700
C1359       C  0.00365785  0.49967625  0.20578535     0.06900
C1360       C  0.04997654  0.52923386  0.19821347    -0.27400
H1361       H  0.87768987  0.41734989  0.17987401     0.11600
H1362       H  0.87939271  0.41648634  0.15278476     0.12700
H1363       H  0.13265843  0.58199112  0.18110713     0.11800
H1364       H  0.13436121  0.58113733  0.15400262     0.11000
H1365       H  0.08968664  0.55011765  0.13032469     0.16400
H1366       H  0.92700135  0.44532231  0.12961379     0.12300
H1367       H  0.92240933  0.44736048  0.20348345     0.15200
H1368       H  0.08509385  0.55213342  0.20435167     0.15000
C1369       C  0.00479016  0.57965713  0.32520965    -0.17900
C1370       C  0.00379198  0.57951654  0.34066753    -0.20100
C1371       C  0.99754426  0.53685387  0.34856250     0.20600
C1372       C  0.99148937  0.49355420  0.34083257    -0.03000
C1373       C  0.99256713  0.49370200  0.32524480    -0.06100
C1374       C  0.99957097  0.53714197  0.31741713     0.20800
C1375       C  0.98695709  0.45055055  0.31749920     0.19000
C1376       C  0.98015528  0.40769080  0.32539630    -0.17600
C1377       C  0.97904221  0.40754812  0.34086455    -0.19800
C1378       C  0.98476064  0.45028237  0.34867169     0.20500
C1379       C  0.98436482  0.45072062  0.36417697    -0.32800
C1380       C  0.99138235  0.49413913  0.37193388     0.01200
C1381       C  0.99769982  0.53693656  0.36405315    -0.24100
C1382       C  0.00140958  0.53730969  0.30193861    -0.28700
C1383       C  0.99588665  0.49452607  0.29428224     0.06900
C1384       C  0.98842388  0.45119052  0.30200185    -0.27400
H1385       H  0.00994441  0.61314294  0.31934814     0.11600
H1386       H  0.00823817  0.61292702  0.34645509     0.12700
H1387       H  0.97582848  0.37432665  0.31960861     0.11800
H1388       H  0.97391203  0.37407458  0.34672742     0.11000
H1389       H  0.97961906  0.41765472  0.37020636     0.16400
H1390       H  0.00263505  0.57032234  0.36998367     0.12300
H1391       H  0.00691795  0.57051072  0.29581290     0.15200
H1392       H  0.98412980  0.41828992  0.29592543     0.15000
C1393       C  0.90504803  0.72222685  0.24413936    -0.17900
C1394       C  0.90549647  0.67611762  0.24407943    -0.20100
C1395       C  0.95098204  0.67553637  0.24686831     0.20600
C1396       C  0.99659828  0.72196880  0.24952450    -0.03000
C1397       C  0.99614128  0.76846072  0.24958751    -0.06100
C1398       C  0.95007049  0.76857183  0.24699229     0.20800
C1399       C  0.04175872  0.81476372  0.25234333     0.19000
C1400       C  0.08740835  0.81434102  0.25487918    -0.17600
C1401       C  0.08785344  0.76833619  0.25482339    -0.19800
C1402       C  0.04266496  0.72198509  0.25222522     0.20500
C1403       C  0.04278392  0.67568833  0.25237357    -0.32800
C1404       C  0.99741286  0.62909697  0.24994152     0.01200
C1405       C  0.95164088  0.62939599  0.24712899    -0.24100
C1406       C  0.94986886  0.81496981  0.24734707    -0.28700
C1407       C  0.99524483  0.86130011  0.25018034     0.06900
C1408       C  0.04102186  0.86072553  0.25258110    -0.27400
H1409       H  0.86938372  0.72159498  0.24204134     0.11600
H1410       H  0.87017200  0.64085567  0.24194111     0.12700
H1411       H  0.12277062  0.84960977  0.25697741     0.11800
H1412       H  0.12355223  0.76899576  0.25688443     0.11000
H1413       H  0.07827185  0.67598023  0.25452032     0.16400
H1414       H  0.91653001  0.59376928  0.24511290     0.12300
H1415       H  0.91448026  0.81500983  0.24533201     0.15200
H1416       H  0.07623580  0.89612372  0.25472936     0.15000
C1417       C  0.90882017  0.22517373  0.24743955    -0.17900
C1418       C  0.90843714  0.17876129  0.24714038    -0.20100
C1419       C  0.95451021  0.17795704  0.24718882     0.20600
C1420       C  0.00148133  0.22437243  0.24732747    -0.03000
C1421       C  0.00186656  0.27127345  0.24764430    -0.06100
C1422       C  0.95527381  0.27155191  0.24779774     0.20800
C1423       C  0.04877306  0.31777090  0.24795813     0.19000
C1424       C  0.09485758  0.31690984  0.24773856    -0.17600
C1425       C  0.09447500  0.27040022  0.24742217    -0.19800
C1426       C  0.04800968  0.22393110  0.24732404     0.20500
C1427       C  0.04721727  0.17707039  0.24741042    -0.32800
C1428       C  0.00046636  0.13058129  0.24756056     0.01200
C1429       C  0.95431897  0.13150468  0.24728723    -0.24100
C1430       C  0.95581929  0.31812500  0.24841612    -0.28700
C1431       C  0.00231334  0.36473558  0.24891413     0.06900
C1432       C  0.04871920  0.36420930  0.24858976    -0.27400
H1433       H  0.87271890  0.22477755  0.24750122     0.11600
H1434       H  0.87206084  0.14345446  0.24698835     0.12700
H1435       H  0.13122586  0.35221979  0.24791769     0.11800
H1436       H  0.13056728  0.27078060  0.24737457     0.11000
H1437       H  0.08303005  0.17687212  0.24755067     0.16400
H1438       H  0.91807387  0.09601974  0.24731090     0.12300
H1439       H  0.91981743  0.31794743  0.24857866     0.15200
H1440       H  0.08478532  0.39985835  0.24887537     0.15000
C1441       C  0.06297642  0.96421755  0.17469572    -0.17900
C1442       C  0.06513106  0.96577515  0.15924150    -0.20100
C1443       C  0.03498793  0.98053635  0.15114520     0.20600
C1444       C  0.00171438  0.99309502  0.15866611    -0.03000
C1445       C  0.99949189  0.99145840  0.17423472    -0.06100
C1446       C  0.03064864  0.97739844  0.18227948     0.20800
C1447       C  0.96633557  0.00419093  0.18174654     0.19000
C1448       C  0.93601808  0.01872081  0.17365348    -0.17600
C1449       C  0.93819363  0.02030731  0.15820910    -0.19800
C1450       C  0.97069878  0.00736382  0.15063464     0.20500
C1451       C  0.97259707  0.00822802  0.13516538    -0.32800
C1452       C  0.00586036  0.99612359  0.12767727     0.01200
C1453       C  0.03732188  0.98279242  0.13566371    -0.24100
C1454       C  0.02927898  0.97731352  0.19776626    -0.28700
C1455       C  0.99638914  0.99000128  0.20523828     0.06900
C1456       C  0.96450857  0.00268330  0.19722486    -0.27400
H1457       H  0.08684238  0.95301872  0.18072349     0.11600
H1458       H  0.09054325  0.95565271  0.15362199     0.12700
H1459       H  0.91063381  0.02888277  0.17927218     0.11800
H1460       H  0.91437307  0.03156806  0.15218301     0.11000
H1461       H  0.94857211  0.01875534  0.12891921     0.16400
H1462       H  0.06263401  0.97304837  0.12979593     0.12300
H1463       H  0.05358631  0.96721331  0.20403421     0.15200
H1464       H  0.93944204  0.01280804  0.20307194     0.15000
C1465       C  0.09493115  0.05429038  0.34033814    -0.17900
C1466       C  0.09408607  0.05229681  0.32487159    -0.20100
C1467       C  0.04742735  0.02998875  0.31717393     0.20600
C1468       C  0.00114677  0.00984054  0.32511853    -0.03000
C1469       C  0.00195121  0.01135003  0.34072603    -0.06100
C1470       C  0.04911559  0.03369106  0.34836372     0.20800
C1471       C  0.95555550  0.98988473  0.34868343     0.19000
C1472       C  0.90897856  0.96865623  0.34098148    -0.17600
C1473       C  0.90823282  0.96769898  0.32550789    -0.19800
C1474       C  0.95402988  0.98759666  0.31748697     0.20500
C1475       C  0.95347418  0.98507149  0.30198579    -0.32800
C1476       C  0.99940508  0.00424260  0.29398297     0.01200
C1477       C  0.04625191  0.02704183  0.30168401    -0.24100
C1478       C  0.04952640  0.03437726  0.36388463    -0.28700
C1479       C  0.00340275  0.01160056  0.37178617     0.06900
C1480       C  0.95659680  0.98952459  0.36419194    -0.27400
H1481       H  0.13141814  0.07149908  0.34603010     0.11600
H1482       H  0.12995632  0.06801682  0.31892683     0.12700
H1483       H  0.87308167  0.95242962  0.34692995     0.11800
H1484       H  0.87176196  0.95076552  0.31981332     0.11000
H1485       H  0.91718846  0.96776430  0.29617314     0.16400
H1486       H  0.08190677  0.04220428  0.29564233     0.12300
H1487       H  0.08554903  0.05127838  0.36984110     0.15200
H1488       H  0.92111499  0.97241164  0.37039019     0.15000
loop_ 
_geom_bond_atom_site_label_1 
_geom_bond_atom_site_label_2 
_geom_bond_distance 
_geom_bond_site_symmetry_2 
_ccdc_geom_bond_type 
O1           Ni9   1.911       .  S
O1           C11   1.280   1_445  A
O2           Ni9   1.913       .  S
O2           C12   1.281   1_455  A
O3           Ni9   1.914   1_565  S
O3           C13   1.281   1_455  A
O4           Ni9   1.919       .  S
O4           C14   1.282   1_455  A
O5          Ni10   1.916   1_545  S
O5           C14   1.282       .  A
O6          Ni10   1.923       .  S
O6           C13   1.283       .  A
O7          Ni10   1.918       .  S
O7           C12   1.282   1_565  A
O8          Ni10   1.913       .  S
O8           C11   1.280       .  A
Ni9         Ni10   2.387   1_445  S
C11        C1455   1.465       .  S
C12        C1476   1.481       .  S
C13        C1407   1.483       .  S
C14        C1428   1.483   1_655  S
O15         Ni23   1.907       .  S
O15          C25   1.280   1_655  A
O16         Ni23   1.911       .  S
O16          C26   1.279       .  A
O17         Ni23   1.919       .  S
O17          C27   1.282       .  A
O18         Ni23   1.915       .  S
O18          C28   1.282   1_655  A
O19         Ni24   1.922       .  S
O19          C28   1.282       .  A
O20         Ni24   1.918       .  S
O20          C27   1.282   1_455  A
O21         Ni24   1.913       .  S
O21          C26   1.279   1_455  A
O22         Ni24   1.911       .  S
O22          C25   1.281       .  A
Ni23        Ni24   2.389   1_655  S
C25        C1359   1.473       .  S
C26        C1383   1.458       .  S
C27        C1404   1.483       .  S
C28        C1431   1.484       .  S
O29         Ni37   1.912       .  S
O29          C39   1.279       .  A
O30         Ni37   1.913       .  S
O30          C40   1.281       .  A
O31         Ni37   1.914       .  S
O31          C41   1.282       .  A
O32         Ni37   1.917   1_565  S
O32          C42   1.282       .  A
O33         Ni38   1.919       .  S
O33          C42   1.282       .  A
O34         Ni38   1.922   1_545  S
O34          C41   1.283       .  A
O35         Ni38   1.916       .  S
O35          C40   1.282   1_565  A
O36         Ni38   1.917       .  S
O36          C39   1.280   1_565  A
Ni37        Ni38   2.388   1_545  S
C39        C1335   1.464       .  S
C40        C1311   1.477       .  S
C41        C1287   1.483       .  S
C42        C1263   1.482       .  S
O43         Ni51   1.913       .  S
O43          C53   1.281       .  A
O44         Ni51   1.915       .  S
O44          C54   1.280       .  A
O45         Ni51   1.913       .  S
O45          C55   1.281       .  A
O46         Ni51   1.919       .  S
O46          C56   1.282       .  A
O47         Ni52   1.918       .  S
O47          C56   1.282       .  A
O48         Ni52   1.922       .  S
O48          C55   1.283       .  A
O49         Ni52   1.909       .  S
O49          C54   1.279       .  A
O50         Ni52   1.908       .  S
O50          C53   1.280       .  A
Ni51        Ni52   2.388       .  S
C53        C1212   1.475       .  S
C54        C1236   1.460       .  S
C55        C1260   1.481       .  S
C56        C1284   1.483       .  S
O57         Ni65   1.917       .  S
O57          C67   1.281   1_665  A
O58         Ni65   1.923       .  S
O58          C68   1.283   1_665  A
O59         Ni65   1.912       .  S
O59          C69   1.281   1_565  A
O60         Ni65   1.915   1_455  S
O60          C70   1.281   1_565  A
O61         Ni66   1.917       .  S
O61          C70   1.282       .  A
O62         Ni66   1.921   1_655  S
O62          C69   1.283       .  A
O63         Ni66   1.914       .  S
O63          C68   1.281       .  A
O64         Ni66   1.917       .  S
O64          C67   1.280       .  A
Ni65        Ni66   2.388   1_665  S
C67        C1479   1.466       .  S
C68        C1140   1.483       .  S
C69        C1164   1.481       .  S
C70        C1188   1.476       .  S
O71         Ni79   1.912   1_655  S
O71          C81   1.281       .  A
O72         Ni79   1.914       .  S
O72          C82   1.281       .  A
O73         Ni79   1.915       .  S
O73          C83   1.282   1_455  A
O74         Ni79   1.918       .  S
O74          C84   1.282   1_455  A
O75         Ni80   1.917       .  S
O75          C84   1.282       .  A
O76         Ni80   1.912       .  S
O76          C83   1.280       .  A
O77         Ni80   1.916   1_455  S
O77          C82   1.282       .  A
O78         Ni80   1.919       .  S
O78          C81   1.282       .  A
Ni79        Ni80   2.387   1_455  S
C81        C1092   1.480       .  S
C82        C1116   1.479       .  S
C83        C1380   1.475       .  S
C84        C1068   1.484       .  S
O85         Ni93   1.919       .  S
O85          C95   1.282       .  A
O86         Ni93   1.915       .  S
O86          C96   1.282       .  A
O87         Ni93   1.913       .  S
O87          C97   1.281       .  A
O88         Ni93   1.911       .  S
O88          C98   1.280       .  A
O89         Ni94   1.921       .  S
O89          C98   1.282   1_565  A
O90         Ni94   1.920       .  S
O90          C97   1.282   1_565  A
O91         Ni94   1.914       .  S
O91          C96   1.281   1_565  A
O92         Ni94   1.908       .  S
O92          C95   1.280   1_565  A
Ni93        Ni94   2.387   1_545  S
C95        C1332   1.479       .  S
C96        C1047   1.478   1_545  S
C97        C1167   1.481       .  S
C98        C1191   1.475       .  S
O99        Ni107   1.914       .  S
O99         C109   1.280       .  A
O100       Ni107   1.916       .  S
O100        C110   1.282       .  A
O101       Ni107   1.919       .  S
O101        C111   1.282       .  A
O102       Ni107   1.912       .  S
O102        C112   1.281       .  A
O103       Ni108   1.918       .  S
O103        C112   1.282       .  A
O104       Ni108   1.912       .  S
O104        C111   1.281       .  A
O105       Ni108   1.925       .  S
O105        C110   1.283       .  A
O106       Ni108   1.916       .  S
O106        C109   1.281       .  A
Ni107      Ni108   2.388       .  S
C109       C1239   1.467       .  S
C110       C1020   1.485       .  S
C111       C1095   1.481       .  S
C112       C1119   1.480       .  S
O113       Ni121   1.914       .  S
O113        C123   1.280   1_545  A
O114       Ni121   1.914       .  S
O114        C124   1.280   1_545  A
O115       Ni121   1.914   1_565  S
O115        C125   1.281       .  A
O116       Ni121   1.917       .  S
O116        C126   1.282       .  A
O117       Ni122   1.919   1_545  S
O117        C126   1.282   1_655  A
O118       Ni122   1.923       .  S
O118        C125   1.283   1_655  A
O119       Ni122   1.909       .  S
O119        C124   1.279   1_655  A
O120       Ni122   1.911       .  S
O120        C123   1.279   1_655  A
Ni121      Ni122   2.390   1_445  S
C123        C996   1.458       .  S
C124       C1452   1.464       .  S
C125        C948   1.482       .  S
C126        C972   1.482       .  S
O127       Ni135   1.912       .  S
O127        C137   1.281       .  A
O128       Ni135   1.913       .  S
O128        C138   1.281       .  A
O129       Ni135   1.920       .  S
O129        C139   1.282       .  A
O130       Ni135   1.920       .  S
O130        C140   1.282       .  A
O131       Ni136   1.916       .  S
O131        C140   1.281   1_655  A
O132       Ni136   1.917       .  S
O132        C139   1.282   1_655  A
O133       Ni136   1.907       .  S
O133        C138   1.280   1_655  A
O134       Ni136   1.907       .  S
O134        C137   1.280   1_655  A
Ni135      Ni136   2.387   1_455  S
C137       C1356   1.474       .  S
C138        C927   1.475       .  S
C139        C951   1.482       .  S
C140        C975   1.481       .  S
O141       Ni149   1.917       .  S
O141        C151   1.281       .  A
O142       Ni149   1.915       .  S
O142        C152   1.282       .  A
O143       Ni149   1.918       .  S
O143        C153   1.282       .  A
O144       Ni149   1.914   1_565  S
O144        C154   1.281       .  A
O145       Ni150   1.920       .  S
O145        C154   1.282       .  A
O146       Ni150   1.919   1_545  S
O146        C153   1.282       .  A
O147       Ni150   1.913       .  S
O147        C152   1.281   1_565  A
O148       Ni150   1.913       .  S
O148        C151   1.281   1_565  A
Ni149      Ni150   2.386   1_545  S
C151       C1308   1.478       .  S
C152        C903   1.479       .  S
C153        C876   1.483       .  S
C154        C852   1.482       .  S
O155       Ni163   1.907       .  S
O155        C165   1.280       .  A
O156       Ni163   1.908       .  S
O156        C166   1.280       .  A
O157       Ni163   1.916       .  S
O157        C167   1.281       .  A
O158       Ni163   1.918       .  S
O158        C168   1.282       .  A
O159       Ni164   1.919       .  S
O159        C168   1.282       .  A
O160       Ni164   1.918       .  S
O160        C167   1.282       .  A
O161       Ni164   1.911       .  S
O161        C166   1.281       .  A
O162       Ni164   1.910       .  S
O162        C165   1.280       .  A
Ni163      Ni164   2.387       .  S
C165        C828   1.471       .  S
C166       C1215   1.474       .  S
C167        C855   1.482       .  S
C168        C879   1.483       .  S
O169       Ni177   1.912       .  S
O169        C179   1.280   1_565  A
O170       Ni177   1.914       .  S
O170        C180   1.281   1_455  A
O171       Ni177   1.923   1_545  S
O171        C181   1.283       .  A
O172       Ni177   1.918   1_655  S
O172        C182   1.282       .  A
O173       Ni178   1.915   1_565  S
O173        C182   1.281       .  A
O174       Ni178   1.913   1_455  S
O174        C181   1.281       .  A
O175       Ni178   1.916       .  S
O175        C180   1.282   1_545  A
O176       Ni178   1.916       .  S
O176        C179   1.281   1_655  A
Ni177      Ni178   2.387   1_465  S
C179        C999   1.472       .  S
C180        C804   1.481       .  S
C181        C780   1.483       .  S
C182        C756   1.482       .  S
O183       Ni191   1.917       .  S
O183        C193   1.282       .  A
O184       Ni191   1.913       .  S
O184        C194   1.280   1_655  A
O185       Ni191   1.922   1_455  S
O185        C195   1.283       .  A
O186       Ni191   1.918       .  S
O186        C196   1.282       .  A
O187       Ni192   1.917   1_655  S
O187        C196   1.282       .  A
O188       Ni192   1.913       .  S
O188        C195   1.281       .  A
O189       Ni192   1.910       .  S
O189        C194   1.279       .  A
O190       Ni192   1.912       .  S
O190        C193   1.281   1_455  A
Ni191      Ni192   2.388   1_655  S
C193        C732   1.481       .  S
C194        C924   1.462       .  S
C195        C711   1.482       .  S
C196        C687   1.483       .  S
O197       Ni205   1.916       .  S
O197        C207   1.281       .  A
O198       Ni205   1.914       .  S
O198        C208   1.280   1_545  A
O199       Ni205   1.919       .  S
O199        C209   1.282       .  A
O200       Ni205   1.912   1_565  S
O200        C210   1.281       .  A
O201       Ni206   1.922       .  S
O201        C210   1.283       .  A
O202       Ni206   1.917   1_545  S
O202        C209   1.282       .  A
O203       Ni206   1.912       .  S
O203        C208   1.279       .  A
O204       Ni206   1.913       .  S
O204        C207   1.281   1_565  A
Ni205      Ni206   2.388   1_545  S
C207        C660   1.479       .  S
C208        C900   1.463       .  S
C209        C684   1.483       .  S
C210        C708   1.482       .  S
O211       Ni219   1.910       .  S
O211        C221   1.280       .  A
O212       Ni219   1.907       .  S
O212        C222   1.279       .  A
O213       Ni219   1.921       .  S
O213        C223   1.283       .  A
O214       Ni219   1.920       .  S
O214        C224   1.283       .  A
O215       Ni220   1.915       .  S
O215        C224   1.281       .  A
O216       Ni220   1.913       .  S
O216        C223   1.281       .  A
O217       Ni220   1.913       .  S
O217        C222   1.280       .  A
O218       Ni220   1.915       .  S
O218        C221   1.282       .  A
Ni219      Ni220   2.388       .  S
C221        C636   1.473       .  S
C222        C831   1.463       .  S
C223        C759   1.483       .  S
C224        C783   1.483       .  S
O225       Ni233   1.915       .  S
O225        C235   1.282       .  A
O226       Ni233   1.921       .  S
O226        C236   1.282       .  A
O227       Ni233   1.925       .  S
O227        C237   1.283       .  A
O228       Ni233   1.919   1_655  S
O228        C238   1.281       .  A
O229       Ni234   1.916       .  S
O229        C238   1.280   1_565  A
O230       Ni234   1.912   1_455  S
O230        C237   1.281   1_565  A
O231       Ni234   1.913       .  S
O231        C236   1.281   1_665  A
O232       Ni234   1.921       .  S
O232        C235   1.282   1_665  A
Ni233      Ni234   2.388   1_445  S
C235       C1143   1.482       .  S
C236        C612   1.478       .  S
C237        C591   1.483       .  S
C238        C564   1.471       .  S
O239       Ni247   1.917       .  S
O239        C249   1.280       .  A
O240       Ni247   1.917       .  S
O240        C250   1.282       .  A
O241       Ni247   1.910   1_455  S
O241        C251   1.280       .  A
O242       Ni247   1.916       .  S
O242        C252   1.282       .  A
O243       Ni248   1.916   1_655  S
O243        C252   1.282       .  A
O244       Ni248   1.921       .  S
O244        C251   1.282       .  A
O245       Ni248   1.921       .  S
O245        C250   1.282   1_455  A
O246       Ni248   1.915       .  S
O246        C249   1.280   1_455  A
Ni247      Ni248   2.388   1_655  S
C249        C540   1.467       .  S
C250       C1071   1.485       .  S
C251        C516   1.478       .  S
C252        C492   1.481       .  S
O253       Ni261   1.909       .  S
O253        C263   1.279       .  A
O254       Ni261   1.918       .  S
O254        C264   1.282       .  A
O255       Ni261   1.919       .  S
O255        C265   1.281       .  A
O256       Ni261   1.925       .  S
O256        C266   1.284       .  A
O257       Ni262   1.912       .  S
O257        C266   1.280   1_545  A
O258       Ni262   1.916       .  S
O258        C265   1.281   1_545  A
O259       Ni262   1.910       .  S
O259        C264   1.281   1_545  A
O260       Ni262   1.915       .  S
O260        C263   1.281   1_545  A
Ni261      Ni262   2.390   1_565  S
C263        C468   1.464       .  S
C264       C1044   1.478       .  S
C265        C567   1.471       .  S
C266        C588   1.483   1_565  S
O267       Ni275   1.923       .  S
O267        C277   1.283       .  A
O268       Ni275   1.918       .  S
O268        C278   1.281       .  A
O269       Ni275   1.916       .  S
O269        C279   1.282       .  A
O270       Ni275   1.911       .  S
O270        C280   1.280       .  A
O271       Ni276   1.921       .  S
O271        C280   1.283       .  A
O272       Ni276   1.914       .  S
O272        C279   1.281       .  A
O273       Ni276   1.921       .  S
O273        C278   1.282       .  A
O274       Ni276   1.923       .  S
O274        C277   1.282       .  A
Ni275      Ni276   2.387       .  S
C277       C1023   1.487       .  S
C278        C444   1.474       .  S
C279        C495   1.480       .  S
C280        C519   1.478       .  S
O281       Ni289   1.916       .  S
O281        C291   1.282   1_455  A
O282       Ni289   1.916       .  S
O282        C292   1.282   1_465  A
O283       Ni289   1.917   1_545  S
O283        C293   1.282       .  A
O284       Ni289   1.912   1_655  S
O284        C294   1.281       .  A
O285       Ni290   1.920   1_565  S
O285        C294   1.283       .  A
O286       Ni290   1.918   1_455  S
O286        C293   1.282       .  A
O287       Ni290   1.918       .  S
O287        C292   1.281       .  A
O288       Ni290   1.916       .  S
O288        C291   1.282   1_545  A
Ni289      Ni290   2.387   1_465  S
C291        C807   1.481       .  S
C292        C615   1.476       .  S
C293        C423   1.483       .  S
C294        C396   1.482       .  S
O295       Ni303   1.916       .  S
O295        C305   1.282       .  A
O296       Ni303   1.917       .  S
O296        C306   1.281       .  A
O297       Ni303   1.915   1_455  S
O297        C307   1.281       .  A
O298       Ni303   1.915       .  S
O298        C308   1.281       .  A
O299       Ni304   1.918   1_655  S
O299        C308   1.282       .  A
O300       Ni304   1.918       .  S
O300        C307   1.282       .  A
O301       Ni304   1.915       .  S
O301        C306   1.282   1_455  A
O302       Ni304   1.917       .  S
O302        C305   1.281   1_455  A
Ni303      Ni304   2.386   1_655  S
C305        C543   1.482       .  S
C306        C735   1.481       .  S
C307        C372   1.482       .  S
C308        C351   1.482       .  S
O309       Ni317   1.915       .  S
O309        C319   1.282   1_545  A
O310       Ni317   1.917       .  S
O310        C320   1.281   1_545  A
O311       Ni317   1.918       .  S
O311        C321   1.282       .  A
O312       Ni317   1.918   1_565  S
O312        C322   1.282       .  A
O313       Ni318   1.914       .  S
O313        C322   1.281       .  A
O314       Ni318   1.916   1_545  S
O314        C321   1.282       .  A
O315       Ni318   1.909       .  S
O315        C320   1.281       .  A
O316       Ni318   1.911       .  S
O316        C319   1.280       .  A
Ni317      Ni318   2.387   1_545  S
C319        C471   1.477       .  S
C320        C663   1.478       .  S
C321        C348   1.482       .  S
C322        C375   1.482       .  S
O323       Ni331   1.916       .  S
O323        C333   1.281       .  A
O324       Ni331   1.919       .  S
O324        C334   1.282       .  A
O325       Ni331   1.920       .  S
O325        C335   1.282       .  A
O326       Ni331   1.917       .  S
O326        C336   1.282       .  A
O327       Ni332   1.917       .  S
O327        C336   1.282       .  A
O328       Ni332   1.913       .  S
O328        C335   1.281       .  A
O329       Ni332   1.917       .  S
O329        C334   1.282       .  A
O330       Ni332   1.915       .  S
O330        C333   1.281       .  A
Ni331      Ni332   2.387       .  S
C333        C639   1.476       .  S
C334        C447   1.482       .  S
C335        C399   1.482       .  S
C336        C420   1.483       .  S
C337        C338   1.398       .  A
C337        C342   1.403       .  A
C337        H353   1.083       .  S
C338        C339   1.403       .  A
C338        H354   1.084       .  S
C339        C349   1.403       .  A
C339        C340   1.411       .  A
C340        C346   1.411       .  A
C340        C341   1.412       .  A
C341        C343   1.411       .  A
C341        C342   1.411       .  A
C342        C350   1.402       .  A
C343        C352   1.403       .  A
C343        C344   1.403       .  A
C344        C345   1.399       .  A
C344        H355   1.084       .  S
C345        C346   1.404       .  A
C345        H356   1.083       .  S
C346        C347   1.403       .  A
C347        C348   1.408       .  A
C347        H357   1.084       .  S
C348        C349   1.407       .  A
C349        H358   1.084       .  S
C350        C351   1.408       .  A
C350        H359   1.084       .  S
C351        C352   1.408       .  A
C352        H360   1.084       .  S
C361        C362   1.398       .  A
C361        C366   1.403       .  A
C361        H377   1.084       .  S
C362        C363   1.403       .  A
C362        H378   1.083       .  S
C363        C373   1.402       .  A
C363        C364   1.411       .  A
C364        C370   1.411       .  A
C364        C365   1.411       .  A
C365        C367   1.411       .  A
C365        C366   1.411       .  A
C366        C374   1.401       .  A
C367        C376   1.403       .  A
C367        C368   1.404       .  A
C368        C369   1.399       .  A
C368        H379   1.083       .  S
C369        C370   1.404       .  A
C369        H380   1.084       .  S
C370        C371   1.403       .  A
C371        C372   1.408       .  A
C371        H381   1.084       .  S
C372        C373   1.407       .  A
C373        H382   1.084       .  S
C374        C375   1.407       .  A
C374        H383   1.084       .  S
C375        C376   1.408       .  A
C376        H384   1.084       .  S
C385        C386   1.398       .  A
C385        C390   1.403       .  A
C385        H401   1.083       .  S
C386        C387   1.403       .  A
C386        H402   1.084       .  S
C387        C397   1.402       .  A
C387        C388   1.411       .  A
C388        C394   1.412       .  A
C388        C389   1.411       .  A
C389        C391   1.411       .  A
C389        C390   1.412       .  A
C390        C398   1.403       .  A
C391        C400   1.402       .  A
C391        C392   1.403       .  A
C392        C393   1.399       .  A
C392        H403   1.084       .  S
C393        C394   1.403       .  A
C393        H404   1.083       .  S
C394        C395   1.403       .  A
C395        C396   1.407       .  A
C395        H405   1.084       .  S
C396        C397   1.408       .  A
C397        H406   1.084       .  S
C398        C399   1.407       .  A
C398        H407   1.084       .  S
C399        C400   1.408       .  A
C400        H408   1.084       .  S
C409        C410   1.399       .  A
C409        C414   1.404       .  A
C409        H425   1.083       .  S
C410        C411   1.404       .  A
C410        H426   1.084       .  S
C411        C421   1.403       .  A
C411        C412   1.411       .  A
C412        C418   1.411       .  A
C412        C413   1.412       .  A
C413        C415   1.411       .  A
C413        C414   1.411       .  A
C414        C422   1.403       .  A
C415        C424   1.403       .  A
C415        C416   1.403       .  A
C416        C417   1.399       .  A
C416        H427   1.084       .  S
C417        C418   1.403       .  A
C417        H428   1.083       .  S
C418        C419   1.402       .  A
C419        C420   1.408       .  A
C419        H429   1.084       .  S
C420        C421   1.408       .  A
C421        H430   1.084       .  S
C422        C423   1.408       .  A
C422        H431   1.084       .  S
C423        C424   1.408       .  A
C424        H432   1.084       .  S
C433        C434   1.400       .  A
C433        C438   1.404       .  A
C433        H449   1.084       .  S
C434        C435   1.404       .  A
C434        H450   1.084       .  S
C435        C445   1.405       .  A
C435        C436   1.412       .  A
C436        C442   1.412       .  A
C436        C437   1.412       .  A
C437        C439   1.411       .  A
C437        C438   1.412       .  A
C438        C446   1.405       .  A
C439        C448   1.402       .  A
C439        C440   1.403       .  A
C440        C441   1.399       .  A
C440        H451   1.084       .  S
C441        C442   1.403       .  A
C441        H452   1.084       .  S
C442        C443   1.403       .  A
C443        C444   1.404       .  A
C443        H453   1.084       .  S
C444        C445   1.406       .  A
C445        H454   1.084       .  S
C446        C447   1.408       .  A
C446        H455   1.084       .  S
C447        C448   1.407       .  A
C448        H456   1.084       .  S
C457        C458   1.398       .  A
C457        C462   1.404       .  A
C457        H473   1.084       .  S
C458        C459   1.403       .  A
C458        H474   1.084       .  S
C459        C469   1.401       .  A
C459        C460   1.412       .  A
C460        C466   1.412   1_565  A
C460        C461   1.409       .  A
C461        C463   1.411   1_565  A
C461        C462   1.411       .  A
C462        C470   1.401       .  A
C463        C472   1.400       .  A
C463        C464   1.403       .  A
C464        C465   1.397       .  A
C464        H475   1.084       .  S
C465        C466   1.402       .  A
C465        H476   1.084       .  S
C466        C467   1.400       .  A
C467        C468   1.402   1_545  A
C467        H477   1.085       .  S
C468        C469   1.403       .  A
C469        H478   1.085       .  S
C470        C471   1.407       .  A
C470        H479   1.084       .  S
C471        C472   1.406   1_565  A
C472        H480   1.084       .  S
C481        C482   1.398       .  A
C481        C486   1.403       .  A
C481        H497   1.084       .  S
C482        C483   1.403       .  A
C482        H498   1.084       .  S
C483        C493   1.402       .  A
C483        C484   1.411       .  A
C484        C490   1.411       .  A
C484        C485   1.411       .  A
C485        C487   1.411       .  A
C485        C486   1.411       .  A
C486        C494   1.402       .  A
C487        C496   1.402       .  A
C487        C488   1.403       .  A
C488        C489   1.398       .  A
C488        H499   1.084       .  S
C489        C490   1.403       .  A
C489        H500   1.084       .  S
C490        C491   1.402       .  A
C491        C492   1.408       .  A
C491        H501   1.084       .  S
C492        C493   1.407       .  A
C493        H502   1.084       .  S
C494        C495   1.407       .  A
C494        H503   1.084       .  S
C495        C496   1.407       .  A
C496        H504   1.084       .  S
C505        C506   1.398       .  A
C505        C510   1.403       .  A
C505        H521   1.084       .  S
C506        C507   1.403       .  A
C506        H522   1.084       .  S
C507        C517   1.400       .  A
C507        C508   1.411       .  A
C508        C514   1.412       .  A
C508        C509   1.411       .  A
C509        C511   1.411       .  A
C509        C510   1.412       .  A
C510        C518   1.402       .  A
C511        C520   1.402       .  A
C511        C512   1.404       .  A
C512        C513   1.399       .  A
C512        H523   1.084       .  S
C513        C514   1.403       .  A
C513        H524   1.084       .  S
C514        C515   1.403       .  A
C515        C516   1.407       .  A
C515        H525   1.084       .  S
C516        C517   1.407       .  A
C517        H526   1.084       .  S
C518        C519   1.405       .  A
C518        H527   1.084       .  S
C519        C520   1.408       .  A
C520        H528   1.084       .  S
C529        C530   1.399       .  A
C529        C534   1.404       .  A
C529        H545   1.084       .  S
C530        C531   1.403       .  A
C530        H546   1.084       .  S
C531        C541   1.403       .  A
C531        C532   1.412   1_455  A
C532        C538   1.412       .  A
C532        C533   1.411       .  A
C533        C535   1.411       .  A
C533        C534   1.411   1_655  A
C534        C542   1.403       .  A
C535        C544   1.401       .  A
C535        C536   1.403       .  A
C536        C537   1.398       .  A
C536        H547   1.084       .  S
C537        C538   1.403       .  A
C537        H548   1.084       .  S
C538        C539   1.401       .  A
C539        C540   1.402       .  A
C539        H549   1.085       .  S
C540        C541   1.403   1_655  A
C541        H550   1.085       .  S
C542        C543   1.408   1_455  A
C542        H551   1.084       .  S
C543        C544   1.407       .  A
C544        H552   1.084       .  S
C553        C554   1.400       .  A
C553        C558   1.404       .  A
C553        H569   1.084       .  S
C554        C555   1.404       .  A
C554        H570   1.084       .  S
C555        C565   1.403       .  A
C555        C556   1.412   1_565  A
C556        C562   1.412       .  A
C556        C557   1.412   1_545  A
C557        C559   1.412   1_565  A
C557        C558   1.413       .  A
C558        C566   1.404       .  A
C559        C568   1.402       .  A
C559        C560   1.403       .  A
C560        C561   1.399       .  A
C560        H571   1.084       .  S
C561        C562   1.403       .  A
C561        H572   1.084       .  S
C562        C563   1.403       .  A
C563        C564   1.403       .  A
C563        H573   1.085       .  S
C564        C565   1.405   1_545  A
C565        H574   1.085       .  S
C566        C567   1.404       .  A
C566        H575   1.085       .  S
C567        C568   1.404   1_565  A
C568        H576   1.085       .  S
C577        C578   1.400       .  A
C577        C582   1.404       .  A
C577        H593   1.083       .  S
C578        C579   1.404       .  A
C578        H594   1.084       .  S
C579        C589   1.403       .  A
C579        C580   1.410       .  A
C580        C586   1.412   1_545  A
C580        C581   1.413       .  A
C581        C583   1.410   1_545  A
C581        C582   1.412       .  A
C582        C590   1.405       .  A
C583        C592   1.402       .  A
C583        C584   1.404       .  A
C584        C585   1.399       .  A
C584        H595   1.084       .  S
C585        C586   1.403       .  A
C585        H596   1.083       .  S
C586        C587   1.404       .  A
C587        C588   1.407   1_565  A
C587        H597   1.084       .  S
C588        C589   1.409       .  A
C589        H598   1.084       .  S
C590        C591   1.408       .  A
C590        H599   1.084       .  S
C591        C592   1.408   1_545  A
C592        H600   1.084       .  S
C601        C602   1.400       .  A
C601        C606   1.404       .  A
C601        H617   1.084       .  S
C602        C603   1.404       .  A
C602        H618   1.084       .  S
C603        C613   1.405       .  A
C603        C604   1.412       .  A
C604        C610   1.411   1_445  A
C604        C605   1.412   1_455  A
C605        C607   1.412   1_545  A
C605        C606   1.412   1_655  A
C606        C614   1.405   1_455  A
C607        C616   1.401       .  A
C607        C608   1.403       .  A
C608        C609   1.397       .  A
C608        H619   1.084       .  S
C609        C610   1.403       .  A
C609        H620   1.084       .  S
C610        C611   1.400   1_655  A
C611        C612   1.406   1_565  A
C611        H621   1.084   1_455  S
C612        C613   1.407       .  A
C613        H622   1.084       .  S
C614        C615   1.407       .  A
C614        H623   1.084       .  S
C615        C616   1.405   1_545  A
C616        H624   1.084       .  S
C625        C626   1.399       .  A
C625        C630   1.404       .  A
C625        H641   1.084       .  S
C626        C627   1.403       .  A
C626        H642   1.084       .  S
C627        C637   1.402       .  A
C627        C628   1.411       .  A
C628        C634   1.412       .  A
C628        C629   1.410       .  A
C629        C631   1.411       .  A
C629        C630   1.412       .  A
C630        C638   1.403       .  A
C631        C640   1.400       .  A
C631        C632   1.403       .  A
C632        C633   1.397       .  A
C632        H643   1.084       .  S
C633        C634   1.402       .  A
C633        H644   1.084       .  S
C634        C635   1.400       .  A
C635        C636   1.404       .  A
C635        H645   1.084       .  S
C636        C637   1.406       .  A
C637        H646   1.084       .  S
C638        C639   1.406       .  A
C638        H647   1.084       .  S
C639        C640   1.405       .  A
C640        H648   1.084       .  S
C649        C650   1.399       .  A
C649        C654   1.404       .  A
C649        H665   1.084       .  S
C650        C651   1.404       .  A
C650        H666   1.084       .  S
C651        C661   1.403       .  A
C651        C652   1.411       .  A
C652        C658   1.411   1_545  A
C652        C653   1.410       .  A
C653        C655   1.410   1_545  A
C653        C654   1.412       .  A
C654        C662   1.403       .  A
C655        C664   1.399       .  A
C655        C656   1.403       .  A
C656        C657   1.397       .  A
C656        H667   1.084       .  S
C657        C658   1.403       .  A
C657        H668   1.084       .  S
C658        C659   1.400       .  A
C659        C660   1.406   1_565  A
C659        H669   1.084       .  S
C660        C661   1.408       .  A
C661        H670   1.084       .  S
C662        C663   1.407   1_545  A
C662        H671   1.084       .  S
C663        C664   1.406       .  A
C664        H672   1.084       .  S
C673        C674   1.400       .  A
C673        C678   1.404       .  A
C673        H689   1.083       .  S
C674        C675   1.404       .  A
C674        H690   1.084       .  S
C675        C685   1.404       .  A
C675        C676   1.411       .  A
C676        C682   1.411       .  A
C676        C677   1.412       .  A
C677        C679   1.411       .  A
C677        C678   1.411       .  A
C678        C686   1.404       .  A
C679        C688   1.402       .  A
C679        C680   1.403       .  A
C680        C681   1.398       .  A
C680        H691   1.084       .  S
C681        C682   1.403       .  A
C681        H692   1.083       .  S
C682        C683   1.402       .  A
C683        C684   1.408       .  A
C683        H693   1.084       .  S
C684        C685   1.409       .  A
C685        H694   1.084       .  S
C686        C687   1.408       .  A
C686        H695   1.084       .  S
C687        C688   1.407       .  A
C688        H696   1.084       .  S
C697        C698   1.398       .  A
C697        C702   1.403       .  A
C697        H713   1.084       .  S
C698        C699   1.403       .  A
C698        H714   1.083       .  S
C699        C709   1.401       .  A
C699        C700   1.410       .  A
C700        C706   1.412       .  A
C700        C701   1.412       .  A
C701        C703   1.410       .  A
C701        C702   1.412       .  A
C702        C710   1.403       .  A
C703        C712   1.402       .  A
C703        C704   1.404       .  A
C704        C705   1.399       .  A
C704        H715   1.083       .  S
C705        C706   1.403       .  A
C705        H716   1.084       .  S
C706        C707   1.404       .  A
C707        C708   1.407       .  A
C707        H717   1.084       .  S
C708        C709   1.408       .  A
C709        H718   1.084       .  S
C710        C711   1.407       .  A
C710        H719   1.084       .  S
C711        C712   1.408       .  A
C712        H720   1.084       .  S
C721        C722   1.399       .  A
C721        C726   1.404       .  A
C721        H737   1.084       .  S
C722        C723   1.404       .  A
C722        H738   1.084       .  S
C723        C733   1.404       .  A
C723        C724   1.411       .  A
C724        C730   1.411   1_655  A
C724        C725   1.411       .  A
C725        C727   1.411   1_655  A
C725        C726   1.411       .  A
C726        C734   1.403       .  A
C727        C736   1.401       .  A
C727        C728   1.403       .  A
C728        C729   1.397       .  A
C728        H739   1.084       .  S
C729        C730   1.403       .  A
C729        H740   1.084       .  S
C730        C731   1.400       .  A
C731        C732   1.407   1_455  A
C731        H741   1.084       .  S
C732        C733   1.408       .  A
C733        H742   1.084       .  S
C734        C735   1.408       .  A
C734        H743   1.084       .  S
C735        C736   1.407   1_655  A
C736        H744   1.084       .  S
C745        C746   1.399       .  A
C745        C750   1.404       .  A
C745        H761   1.083       .  S
C746        C747   1.403       .  A
C746        H762   1.084       .  S
C747        C757   1.403       .  A
C747        C748   1.411       .  A
C748        C754   1.411       .  A
C748        C749   1.412       .  A
C749        C751   1.412       .  A
C749        C750   1.411       .  A
C750        C758   1.403       .  A
C751        C760   1.403       .  A
C751        C752   1.403       .  A
C752        C753   1.398       .  A
C752        H763   1.084       .  S
C753        C754   1.403       .  A
C753        H764   1.083       .  S
C754        C755   1.402       .  A
C755        C756   1.408       .  A
C755        H765   1.084       .  S
C756        C757   1.408       .  A
C757        H766   1.084       .  S
C758        C759   1.409       .  A
C758        H767   1.084       .  S
C759        C760   1.407       .  A
C760        H768   1.084       .  S
C769        C770   1.399       .  A
C769        C774   1.403       .  A
C769        H785   1.083       .  S
C770        C771   1.404       .  A
C770        H786   1.084       .  S
C771        C781   1.402       .  A
C771        C772   1.410       .  A
C772        C778   1.412       .  A
C772        C773   1.412       .  A
C773        C775   1.411       .  A
C773        C774   1.412       .  A
C774        C782   1.403       .  A
C775        C784   1.402       .  A
C775        C776   1.404       .  A
C776        C777   1.399       .  A
C776        H787   1.084       .  S
C777        C778   1.403       .  A
C777        H788   1.083       .  S
C778        C779   1.404       .  A
C779        C780   1.408       .  A
C779        H789   1.084       .  S
C780        C781   1.408       .  A
C781        H790   1.084       .  S
C782        C783   1.407       .  A
C782        H791   1.084       .  S
C783        C784   1.408       .  A
C784        H792   1.084       .  S
C793        C794   1.399       .  A
C793        C798   1.403       .  A
C793        H809   1.084       .  S
C794        C795   1.403       .  A
C794        H810   1.084       .  S
C795        C805   1.402       .  A
C795        C796   1.411   1_455  A
C796        C802   1.411   1_565  A
C796        C797   1.411       .  A
C797        C799   1.411   1_565  A
C797        C798   1.411   1_655  A
C798        C806   1.402       .  A
C799        C808   1.402       .  A
C799        C800   1.403       .  A
C800        C801   1.398       .  A
C800        H811   1.084       .  S
C801        C802   1.403       .  A
C801        H812   1.084       .  S
C802        C803   1.402       .  A
C803        C804   1.407   1_545  A
C803        H813   1.084       .  S
C804        C805   1.408   1_655  A
C805        H814   1.084       .  S
C806        C807   1.408   1_455  A
C806        H815   1.084       .  S
C807        C808   1.408   1_565  A
C808        H816   1.084       .  S
C817        C818   1.398   1_556  A
C817        C822   1.403       .  A
C817        H833   1.084       .  S
C818        C819   1.403       .  A
C818        H834   1.084       .  S
C819        C829   1.400       .  A
C819        C820   1.411       .  A
C820        C826   1.411       .  A
C820        C821   1.407   1_554  A
C821        C823   1.412       .  A
C821        C822   1.412       .  A
C822        C830   1.401       .  A
C823        C832   1.397       .  A
C823        C824   1.402       .  A
C824        C825   1.396   1_556  A
C824        H835   1.084       .  S
C825        C826   1.402       .  A
C825        H836   1.084       .  S
C826        C827   1.397       .  A
C827        C828   1.405       .  A
C827        H837   1.084       .  S
C828        C829   1.406       .  A
C829        H838   1.084       .  S
C830        C831   1.403       .  A
C830        H839   1.084       .  S
C831        C832   1.402       .  A
C832        H840   1.085       .  S
C841        C842   1.399       .  A
C841        C846   1.404       .  A
C841        H857   1.083       .  S
C842        C843   1.404       .  A
C842        H858   1.084       .  S
C843        C853   1.404       .  A
C843        C844   1.412       .  A
C844        C850   1.411       .  A
C844        C845   1.412       .  A
C845        C847   1.411       .  A
C845        C846   1.411       .  A
C846        C854   1.403       .  A
C847        C856   1.402       .  A
C847        C848   1.403       .  A
C848        C849   1.398       .  A
C848        H859   1.084       .  S
C849        C850   1.403       .  A
C849        H860   1.083       .  S
C850        C851   1.401       .  A
C851        C852   1.408       .  A
C851        H861   1.084       .  S
C852        C853   1.408       .  A
C853        H862   1.084       .  S
C854        C855   1.408       .  A
C854        H863   1.084       .  S
C855        C856   1.407       .  A
C856        H864   1.084       .  S
C865        C866   1.399       .  A
C865        C870   1.404       .  A
C865        H881   1.083       .  S
C866        C867   1.404       .  A
C866        H882   1.084       .  S
C867        C877   1.404       .  A
C867        C868   1.411       .  A
C868        C874   1.411       .  A
C868        C869   1.412       .  A
C869        C871   1.411       .  A
C869        C870   1.411       .  A
C870        C878   1.404       .  A
C871        C880   1.402       .  A
C871        C872   1.403       .  A
C872        C873   1.398       .  A
C872        H883   1.084       .  S
C873        C874   1.403       .  A
C873        H884   1.083       .  S
C874        C875   1.403       .  A
C875        C876   1.408       .  A
C875        H885   1.084       .  S
C876        C877   1.408       .  A
C877        H886   1.084       .  S
C878        C879   1.408       .  A
C878        H887   1.084       .  S
C879        C880   1.408       .  A
C880        H888   1.084       .  S
C889        C890   1.398   1_554  A
C889        C894   1.403       .  A
C889        H905   1.084       .  S
C890        C891   1.403       .  A
C890        H906   1.084       .  S
C891        C901   1.401       .  A
C891        C892   1.412   1_545  A
C892        C898   1.412       .  A
C892        C893   1.410   1_556  A
C893        C895   1.411       .  A
C893        C894   1.411   1_565  A
C894        C902   1.401       .  A
C895        C904   1.401       .  A
C895        C896   1.404       .  A
C896        C897   1.398   1_554  A
C896        H907   1.084       .  S
C897        C898   1.403       .  A
C897        H908   1.084       .  S
C898        C899   1.401       .  A
C899        C900   1.402       .  A
C899        H909   1.085       .  S
C900        C901   1.402   1_565  A
C901        H910   1.085       .  S
C902        C903   1.407       .  A
C902        H911   1.084       .  S
C903        C904   1.407   1_545  A
C904        H912   1.084       .  S
C913        C914   1.396   1_554  A
C913        C918   1.403       .  A
C913        H929   1.084       .  S
C914        C915   1.402       .  A
C914        H930   1.084       .  S
C915        C925   1.398       .  A
C915        C916   1.412   1_655  A
C916        C922   1.412       .  A
C916        C917   1.408   1_556  A
C917        C919   1.411       .  A
C917        C918   1.411   1_455  A
C918        C926   1.397       .  A
C919        C928   1.402       .  A
C919        C920   1.404       .  A
C920        C921   1.399   1_554  A
C920        H931   1.084       .  S
C921        C922   1.403       .  A
C921        H932   1.084       .  S
C922        C923   1.401       .  A
C923        C924   1.403       .  A
C923        H933   1.085       .  S
C924        C925   1.401   1_455  A
C925        H934   1.085       .  S
C926        C927   1.406   1_655  A
C926        H935   1.084       .  S
C927        C928   1.407       .  A
C928        H936   1.084       .  S
C937        C938   1.399       .  A
C937        C942   1.403       .  A
C937        H953   1.084       .  S
C938        C939   1.404       .  A
C938        H954   1.083       .  S
C939        C949   1.403       .  A
C939        C940   1.411       .  A
C940        C946   1.412   1_455  A
C940        C941   1.412       .  A
C941        C943   1.411   1_455  A
C941        C942   1.412       .  A
C942        C950   1.404       .  A
C943        C952   1.403       .  A
C943        C944   1.404       .  A
C944        C945   1.399       .  A
C944        H955   1.083       .  S
C945        C946   1.403       .  A
C945        H956   1.084       .  S
C946        C947   1.404       .  A
C947        C948   1.407   1_655  A
C947        H957   1.084       .  S
C948        C949   1.408       .  A
C949        H958   1.084       .  S
C950        C951   1.407       .  A
C950        H959   1.084       .  S
C951        C952   1.408   1_455  A
C952        H960   1.084       .  S
C961        C962   1.399       .  A
C961        C966   1.403       .  A
C961        H977   1.083       .  S
C962        C963   1.403       .  A
C962        H978   1.084       .  S
C963        C973   1.402       .  A
C963        C964   1.411       .  A
C964        C970   1.412   1_455  A
C964        C965   1.412       .  A
C965        C967   1.411   1_455  A
C965        C966   1.412       .  A
C966        C974   1.403       .  A
C967        C976   1.403       .  A
C967        C968   1.404       .  A
C968        C969   1.399       .  A
C968        H979   1.084       .  S
C969        C970   1.404       .  A
C969        H980   1.083       .  S
C970        C971   1.404       .  A
C971        C972   1.408   1_655  A
C971        H981   1.084       .  S
C972        C973   1.407       .  A
C973        H982   1.084       .  S
C974        C975   1.407       .  A
C974        H983   1.084       .  S
C975        C976   1.408   1_455  A
C976        H984   1.084       .  S
C985        C986   1.398   1_556  A
C985        C990   1.403       .  A
C985       H1001   1.084       .  S
C986        C987   1.403       .  A
C986       H1002   1.084       .  S
C987        C997   1.401       .  A
C987        C988   1.413       .  A
C988        C994   1.412   1_565  A
C988        C989   1.409   1_554  A
C989        C991   1.412   1_565  A
C989        C990   1.411       .  A
C990        C998   1.400       .  A
C991       C1000   1.402       .  A
C991        C992   1.403       .  A
C992        C993   1.398   1_556  A
C992       H1003   1.084       .  S
C993        C994   1.403       .  A
C993       H1004   1.084       .  S
C994        C995   1.401       .  A
C995        C996   1.401   1_545  A
C995       H1005   1.085       .  S
C996        C997   1.400       .  A
C997       H1006   1.085       .  S
C998        C999   1.405   1_565  A
C998       H1007   1.084       .  S
C999       C1000   1.405       .  A
C1000      H1008   1.084       .  S
C1009      C1010   1.402       .  A
C1009      C1014   1.405       .  A
C1009      H1025   1.083       .  S
C1010      C1011   1.405       .  A
C1010      H1026   1.083       .  S
C1011      C1021   1.408       .  A
C1011      C1012   1.412       .  A
C1012      C1018   1.411       .  A
C1012      C1013   1.414       .  A
C1013      C1015   1.411       .  A
C1013      C1014   1.411       .  A
C1014      C1022   1.407       .  A
C1015      C1024   1.403       .  A
C1015      C1016   1.403       .  A
C1016      C1017   1.398       .  A
C1016      H1027   1.084       .  S
C1017      C1018   1.403       .  A
C1017      H1028   1.084       .  S
C1018      C1019   1.402       .  A
C1019      C1020   1.407       .  A
C1019      H1029   1.084       .  S
C1020      C1021   1.409       .  A
C1021      H1030   1.084       .  S
C1022      C1023   1.410       .  A
C1022      H1031   1.084       .  S
C1023      C1024   1.407       .  A
C1024      H1032   1.084       .  S
C1033      C1034   1.399       .  A
C1033      C1038   1.404       .  A
C1033      H1049   1.084       .  S
C1034      C1035   1.404       .  A
C1034      H1050   1.084       .  S
C1035      C1045   1.403       .  A
C1035      C1036   1.412       .  A
C1036      C1042   1.411   1_565  A
C1036      C1037   1.410       .  A
C1037      C1039   1.411   1_565  A
C1037      C1038   1.411       .  A
C1038      C1046   1.403       .  A
C1039      C1048   1.400       .  A
C1039      C1040   1.403       .  A
C1040      C1041   1.397       .  A
C1040      H1051   1.084       .  S
C1041      C1042   1.403       .  A
C1041      H1052   1.084       .  S
C1042      C1043   1.399       .  A
C1043      C1044   1.406   1_545  A
C1043      H1053   1.084       .  S
C1044      C1045   1.407       .  A
C1045      H1054   1.084       .  S
C1046      C1047   1.408       .  A
C1046      H1055   1.084       .  S
C1047      C1048   1.406   1_565  A
C1048      H1056   1.084       .  S
C1057      C1058   1.398       .  A
C1057      C1062   1.403       .  A
C1057      H1073   1.084       .  S
C1058      C1059   1.403       .  A
C1058      H1074   1.084       .  S
C1059      C1069   1.402       .  A
C1059      C1060   1.411   1_655  A
C1060      C1066   1.411       .  A
C1060      C1061   1.413       .  A
C1061      C1063   1.411       .  A
C1061      C1062   1.411   1_455  A
C1062      C1070   1.402       .  A
C1063      C1072   1.406       .  A
C1063      C1064   1.404       .  A
C1064      C1065   1.400       .  A
C1064      H1075   1.084       .  S
C1065      C1066   1.404       .  A
C1065      H1076   1.084       .  S
C1066      C1067   1.405       .  A
C1067      C1068   1.409   1_455  A
C1067      H1077   1.084       .  S
C1068      C1069   1.407       .  A
C1069      H1078   1.084       .  S
C1070      C1071   1.408       .  A
C1070      H1079   1.084       .  S
C1071      C1072   1.409   1_655  A
C1072      H1080   1.084       .  S
C1081      C1082   1.399       .  A
C1081      C1086   1.404       .  A
C1081      H1097   1.084       .  S
C1082      C1083   1.403       .  A
C1082      H1098   1.084       .  S
C1083      C1093   1.403       .  A
C1083      C1084   1.412       .  A
C1084      C1090   1.411       .  A
C1084      C1085   1.411       .  A
C1085      C1087   1.412       .  A
C1085      C1086   1.411       .  A
C1086      C1094   1.402       .  A
C1087      C1096   1.402       .  A
C1087      C1088   1.403       .  A
C1088      C1089   1.398       .  A
C1088      H1099   1.083       .  S
C1089      C1090   1.403       .  A
C1089      H1100   1.084       .  S
C1090      C1091   1.401       .  A
C1091      C1092   1.407       .  A
C1091      H1101   1.084       .  S
C1092      C1093   1.407       .  A
C1093      H1102   1.084       .  S
C1094      C1095   1.408       .  A
C1094      H1103   1.084       .  S
C1095      C1096   1.407       .  A
C1096      H1104   1.084       .  S
C1105      C1106   1.398       .  A
C1105      C1110   1.403       .  A
C1105      H1121   1.084       .  S
C1106      C1107   1.403       .  A
C1106      H1122   1.084       .  S
C1107      C1117   1.401       .  A
C1107      C1108   1.411       .  A
C1108      C1114   1.411       .  A
C1108      C1109   1.411       .  A
C1109      C1111   1.411       .  A
C1109      C1110   1.411       .  A
C1110      C1118   1.401       .  A
C1111      C1120   1.402       .  A
C1111      C1112   1.403       .  A
C1112      C1113   1.399       .  A
C1112      H1123   1.084       .  S
C1113      C1114   1.403       .  A
C1113      H1124   1.084       .  S
C1114      C1115   1.402       .  A
C1115      C1116   1.407       .  A
C1115      H1125   1.084       .  S
C1116      C1117   1.407       .  A
C1117      H1126   1.084       .  S
C1118      C1119   1.407       .  A
C1118      H1127   1.084       .  S
C1119      C1120   1.407       .  A
C1120      H1128   1.084       .  S
C1129      C1130   1.400       .  A
C1129      C1134   1.404       .  A
C1129      H1145   1.083       .  S
C1130      C1131   1.404       .  A
C1130      H1146   1.083       .  S
C1131      C1141   1.405       .  A
C1131      C1132   1.412   1_665  A
C1132      C1138   1.411       .  A
C1132      C1133   1.412       .  A
C1133      C1135   1.411       .  A
C1133      C1134   1.411   1_445  A
C1134      C1142   1.405       .  A
C1135      C1144   1.402       .  A
C1135      C1136   1.403       .  A
C1136      C1137   1.398       .  A
C1136      H1147   1.084       .  S
C1137      C1138   1.403       .  A
C1137      H1148   1.084       .  S
C1138      C1139   1.401       .  A
C1139      C1140   1.408       .  A
C1139      H1149   1.084       .  S
C1140      C1141   1.408   1_445  A
C1141      H1150   1.084       .  S
C1142      C1143   1.408   1_665  A
C1142      H1151   1.084       .  S
C1143      C1144   1.407       .  A
C1144      H1152   1.084       .  S
C1153      C1154   1.398       .  A
C1153      C1158   1.403       .  A
C1153      H1169   1.084       .  S
C1154      C1155   1.403       .  A
C1154      H1170   1.084       .  S
C1155      C1165   1.403       .  A
C1155      C1156   1.412       .  A
C1156      C1162   1.410   1_545  A
C1156      C1157   1.411       .  A
C1157      C1159   1.412   1_545  A
C1157      C1158   1.410       .  A
C1158      C1166   1.401       .  A
C1159      C1168   1.403       .  A
C1159      C1160   1.403       .  A
C1160      C1161   1.399       .  A
C1160      H1171   1.084       .  S
C1161      C1162   1.404       .  A
C1161      H1172   1.084       .  S
C1162      C1163   1.402       .  A
C1163      C1164   1.408   1_565  A
C1163      H1173   1.084       .  S
C1164      C1165   1.407       .  A
C1165      H1174   1.084       .  S
C1166      C1167   1.408       .  A
C1166      H1175   1.084       .  S
C1167      C1168   1.407   1_545  A
C1168      H1176   1.084       .  S
C1177      C1178   1.399       .  A
C1177      C1182   1.403       .  A
C1177      H1193   1.084       .  S
C1178      C1179   1.403       .  A
C1178      H1194   1.084       .  S
C1179      C1189   1.402       .  A
C1179      C1180   1.412       .  A
C1180      C1186   1.411   1_545  A
C1180      C1181   1.411       .  A
C1181      C1183   1.412   1_545  A
C1181      C1182   1.411       .  A
C1182      C1190   1.402       .  A
C1183      C1192   1.403       .  A
C1183      C1184   1.403       .  A
C1184      C1185   1.399       .  A
C1184      H1195   1.084       .  S
C1185      C1186   1.403       .  A
C1185      H1196   1.084       .  S
C1186      C1187   1.402       .  A
C1187      C1188   1.406   1_565  A
C1187      H1197   1.084       .  S
C1188      C1189   1.405       .  A
C1189      H1198   1.084       .  S
C1190      C1191   1.406       .  A
C1190      H1199   1.084       .  S
C1191      C1192   1.405   1_545  A
C1192      H1200   1.084       .  S
C1201      C1202   1.397       .  A
C1201      C1206   1.403       .  A
C1201      H1217   1.084       .  S
C1202      C1203   1.403       .  A
C1202      H1218   1.084       .  S
C1203      C1213   1.399       .  A
C1203      C1204   1.411       .  A
C1204      C1210   1.411       .  A
C1204      C1205   1.408       .  A
C1205      C1207   1.411       .  A
C1205      C1206   1.411       .  A
C1206      C1214   1.399       .  A
C1207      C1216   1.399       .  A
C1207      C1208   1.403       .  A
C1208      C1209   1.397       .  A
C1208      H1219   1.084       .  S
C1209      C1210   1.403       .  A
C1209      H1220   1.084       .  S
C1210      C1211   1.400       .  A
C1211      C1212   1.406       .  A
C1211      H1221   1.084       .  S
C1212      C1213   1.406       .  A
C1213      H1222   1.084       .  S
C1214      C1215   1.406       .  A
C1214      H1223   1.084       .  S
C1215      C1216   1.406       .  A
C1216      H1224   1.084       .  S
C1225      C1226   1.397       .  A
C1225      C1230   1.403       .  A
C1225      H1241   1.084       .  S
C1226      C1227   1.402       .  A
C1226      H1242   1.084       .  S
C1227      C1237   1.399       .  A
C1227      C1228   1.412       .  A
C1228      C1234   1.413       .  A
C1228      C1229   1.409       .  A
C1229      C1231   1.412       .  A
C1229      C1230   1.412       .  A
C1230      C1238   1.400       .  A
C1231      C1240   1.403       .  A
C1231      C1232   1.404       .  A
C1232      C1233   1.399       .  A
C1232      H1243   1.084       .  S
C1233      C1234   1.403       .  A
C1233      H1244   1.084       .  S
C1234      C1235   1.402       .  A
C1235      C1236   1.402       .  A
C1235      H1245   1.085       .  S
C1236      C1237   1.400       .  A
C1237      H1246   1.085       .  S
C1238      C1239   1.402       .  A
C1238      H1247   1.085       .  S
C1239      C1240   1.404       .  A
C1240      H1248   1.084       .  S
C1249      C1250   1.399       .  A
C1249      C1254   1.403       .  A
C1249      H1265   1.084       .  S
C1250      C1251   1.404       .  A
C1250      H1266   1.083       .  S
C1251      C1261   1.402       .  A
C1251      C1252   1.411       .  A
C1252      C1258   1.412       .  A
C1252      C1253   1.412       .  A
C1253      C1255   1.411       .  A
C1253      C1254   1.411       .  A
C1254      C1262   1.403       .  A
C1255      C1264   1.403       .  A
C1255      C1256   1.404       .  A
C1256      C1257   1.399       .  A
C1256      H1267   1.083       .  S
C1257      C1258   1.403       .  A
C1257      H1268   1.084       .  S
C1258      C1259   1.403       .  A
C1259      C1260   1.407       .  A
C1259      H1269   1.084       .  S
C1260      C1261   1.408       .  A
C1261      H1270   1.084       .  S
C1262      C1263   1.408       .  A
C1262      H1271   1.084       .  S
C1263      C1264   1.408       .  A
C1264      H1272   1.084       .  S
C1273      C1274   1.400       .  A
C1273      C1278   1.404       .  A
C1273      H1289   1.083       .  S
C1274      C1275   1.404       .  A
C1274      H1290   1.084       .  S
C1275      C1285   1.404       .  A
C1275      C1276   1.411       .  A
C1276      C1282   1.411       .  A
C1276      C1277   1.412       .  A
C1277      C1279   1.411       .  A
C1277      C1278   1.412       .  A
C1278      C1286   1.405       .  A
C1279      C1288   1.401       .  A
C1279      C1280   1.403       .  A
C1280      C1281   1.398       .  A
C1280      H1291   1.084       .  S
C1281      C1282   1.403       .  A
C1281      H1292   1.083       .  S
C1282      C1283   1.402       .  A
C1283      C1284   1.407       .  A
C1283      H1293   1.084       .  S
C1284      C1285   1.409       .  A
C1285      H1294   1.084       .  S
C1286      C1287   1.408       .  A
C1286      H1295   1.084       .  S
C1287      C1288   1.407       .  A
C1288      H1296   1.084       .  S
C1297      C1298   1.398       .  A
C1297      C1302   1.403   1_565  A
C1297      H1313   1.084       .  S
C1298      C1299   1.403   1_565  A
C1298      H1314   1.084       .  S
C1299      C1309   1.401       .  A
C1299      C1300   1.411       .  A
C1300      C1306   1.412       .  A
C1300      C1301   1.411       .  A
C1301      C1303   1.411       .  A
C1301      C1302   1.412       .  A
C1302      C1310   1.401       .  A
C1303      C1312   1.402       .  A
C1303      C1304   1.404       .  A
C1304      C1305   1.399       .  A
C1304      H1315   1.084       .  S
C1305      C1306   1.404       .  A
C1305      H1316   1.084       .  S
C1306      C1307   1.403       .  A
C1307      C1308   1.407       .  A
C1307      H1317   1.084       .  S
C1308      C1309   1.406       .  A
C1309      H1318   1.084   1_545  S
C1310      C1311   1.406       .  A
C1310      H1319   1.084   1_545  S
C1311      C1312   1.407       .  A
C1312      H1320   1.084       .  S
C1321      C1322   1.398       .  A
C1321      C1326   1.403       .  A
C1321      H1337   1.084       .  S
C1322      C1323   1.404       .  A
C1322      H1338   1.084       .  S
C1323      C1333   1.400       .  A
C1323      C1324   1.410   1_565  A
C1324      C1330   1.412       .  A
C1324      C1325   1.410       .  A
C1325      C1327   1.412       .  A
C1325      C1326   1.413   1_545  A
C1326      C1334   1.402       .  A
C1327      C1336   1.401       .  A
C1327      C1328   1.403       .  A
C1328      C1329   1.398       .  A
C1328      H1339   1.084       .  S
C1329      C1330   1.403       .  A
C1329      H1340   1.084       .  S
C1330      C1331   1.402       .  A
C1331      C1332   1.407       .  A
C1331      H1341   1.084       .  S
C1332      C1333   1.408   1_545  A
C1333      H1342   1.084       .  S
C1334      C1335   1.402   1_565  A
C1334      H1343   1.085       .  S
C1335      C1336   1.402       .  A
C1336      H1344   1.085       .  S
C1345      C1346   1.396       .  A
C1345      C1350   1.402       .  A
C1345      H1361   1.084       .  S
C1346      C1347   1.402       .  A
C1346      H1362   1.084       .  S
C1347      C1357   1.398       .  A
C1347      C1348   1.411   1_655  A
C1348      C1354   1.411       .  A
C1348      C1349   1.408       .  A
C1349      C1351   1.411       .  A
C1349      C1350   1.411   1_455  A
C1350      C1358   1.398       .  A
C1351      C1360   1.400       .  A
C1351      C1352   1.403       .  A
C1352      C1353   1.397       .  A
C1352      H1363   1.084       .  S
C1353      C1354   1.403       .  A
C1353      H1364   1.084       .  S
C1354      C1355   1.400       .  A
C1355      C1356   1.406       .  A
C1355      H1365   1.084       .  S
C1356      C1357   1.406   1_455  A
C1357      H1366   1.084       .  S
C1358      C1359   1.406   1_655  A
C1358      H1367   1.084       .  S
C1359      C1360   1.406       .  A
C1360      H1368   1.084       .  S
C1369      C1370   1.397       .  A
C1369      C1374   1.402   1_455  A
C1369      H1385   1.084       .  S
C1370      C1371   1.403   1_455  A
C1370      H1386   1.084       .  S
C1371      C1381   1.400       .  A
C1371      C1372   1.411       .  A
C1372      C1378   1.411       .  A
C1372      C1373   1.409       .  A
C1373      C1375   1.413       .  A
C1373      C1374   1.413       .  A
C1374      C1382   1.400   1_655  A
C1375      C1384   1.401       .  A
C1375      C1376   1.403       .  A
C1376      C1377   1.398       .  A
C1376      H1387   1.084       .  S
C1377      C1378   1.404       .  A
C1377      H1388   1.084       .  S
C1378      C1379   1.401       .  A
C1379      C1380   1.406       .  A
C1379      H1389   1.084       .  S
C1380      C1381   1.405       .  A
C1381      H1390   1.084   1_655  S
C1382      C1383   1.400   1_455  A
C1382      H1391   1.085       .  S
C1383      C1384   1.401       .  A
C1384      H1392   1.085       .  S
C1393      C1394   1.401       .  A
C1393      C1398   1.404       .  A
C1393      H1409   1.084       .  S
C1394      C1395   1.404       .  A
C1394      H1410   1.083       .  S
C1395      C1405   1.405       .  A
C1395      C1396   1.411       .  A
C1396      C1402   1.411   1_655  A
C1396      C1397   1.412       .  A
C1397      C1399   1.411   1_655  A
C1397      C1398   1.412       .  A
C1398      C1406   1.406       .  A
C1399      C1408   1.401       .  A
C1399      C1400   1.403       .  A
C1400      C1401   1.397       .  A
C1400      H1411   1.083       .  S
C1401      C1402   1.403       .  A
C1401      H1412   1.084       .  S
C1402      C1403   1.401       .  A
C1403      C1404   1.407   1_455  A
C1403      H1413   1.084       .  S
C1404      C1405   1.409       .  A
C1405      H1414   1.084       .  S
C1406      C1407   1.409       .  A
C1406      H1415   1.084       .  S
C1407      C1408   1.407   1_655  A
C1408      H1416   1.084       .  S
C1417      C1418   1.397       .  A
C1417      C1422   1.403       .  A
C1417      H1433   1.084       .  S
C1418      C1419   1.403       .  A
C1418      H1434   1.083       .  S
C1419      C1429   1.401       .  A
C1419      C1420   1.411   1_655  A
C1420      C1426   1.411       .  A
C1420      C1421   1.412       .  A
C1421      C1423   1.411       .  A
C1421      C1422   1.411   1_455  A
C1422      C1430   1.401       .  A
C1423      C1432   1.406       .  A
C1423      C1424   1.404       .  A
C1424      C1425   1.400       .  A
C1424      H1435   1.083       .  S
C1425      C1426   1.404       .  A
C1425      H1436   1.084       .  S
C1426      C1427   1.405       .  A
C1427      C1428   1.409       .  A
C1427      H1437   1.084       .  S
C1428      C1429   1.407   1_455  A
C1429      H1438   1.084       .  S
C1430      C1431   1.407   1_655  A
C1430      H1439   1.084       .  S
C1431      C1432   1.409       .  A
C1432      H1440   1.084       .  S
C1441      C1442   1.398       .  A
C1441      C1446   1.403       .  A
C1441      H1457   1.084       .  S
C1442      C1443   1.403       .  A
C1442      H1458   1.084       .  S
C1443      C1453   1.401       .  A
C1443      C1444   1.413       .  A
C1444      C1450   1.412   1_465  A
C1444      C1445   1.408   1_455  A
C1445      C1447   1.412   1_565  A
C1445      C1446   1.412   1_655  A
C1446      C1454   1.400       .  A
C1447      C1456   1.400       .  A
C1447      C1448   1.403       .  A
C1448      C1449   1.397       .  A
C1448      H1459   1.084       .  S
C1449      C1450   1.403       .  A
C1449      H1460   1.084       .  S
C1450      C1451   1.399       .  A
C1451      C1452   1.402   1_645  A
C1451      H1461   1.085       .  S
C1452      C1453   1.403       .  A
C1453      H1462   1.085       .  S
C1454      C1455   1.403   1_455  A
C1454      H1463   1.085       .  S
C1455      C1456   1.402   1_565  A
C1456      H1464   1.085       .  S
C1465      C1466   1.399       .  A
C1465      C1470   1.403       .  A
C1465      H1481   1.084       .  S
C1466      C1467   1.404       .  A
C1466      H1482   1.084       .  S
C1467      C1477   1.402       .  A
C1467      C1468   1.411       .  A
C1468      C1474   1.411   1_445  A
C1468      C1469   1.411       .  A
C1469      C1471   1.412   1_445  A
C1469      C1470   1.413       .  A
C1470      C1478   1.403       .  A
C1471      C1480   1.402       .  A
C1471      C1472   1.403       .  A
C1472      C1473   1.399       .  A
C1472      H1483   1.084       .  S
C1473      C1474   1.404       .  A
C1473      H1484   1.084       .  S
C1474      C1475   1.403       .  A
C1475      C1476   1.407   1_565  A
C1475      H1485   1.084       .  S
C1476      C1477   1.408   1_655  A
C1477      H1486   1.084       .  S
C1478      C1479   1.403       .  A
C1478      H1487   1.085       .  S
C1479      C1480   1.403   1_445  A
C1480      H1488   1.085       .  S
