geometry optimzed in LAMMPS
_audit_creation_date              2020-12-01 
_audit_creation_method            'lammps2cif' 
_symmetry_space_group_name_H-M    'P1' 
_symmetry_Int_Tables_number       1 
_symmetry_cell_setting            triclinic 
loop_ 
_symmetry_equiv_pos_as_xyz 
  x,y,z 
_cell_length_a                    31.32613345 
_cell_length_b                    30.83122919621873 
_cell_length_c                    32.910858351742014 
_cell_angle_alpha                 90.23336196810561 
_cell_angle_beta                  90.09813885629568 
_cell_angle_gamma                 120.60329780391154 
loop_ 
_atom_site_label 
_atom_site_type_symbol 
_atom_site_fract_x 
_atom_site_fract_y 
_atom_site_fract_z 
_atom_site_charge 
C1          C  0.02194689  0.96147767  0.24767985     0.80100
N2          N  0.97118637  0.93516586  0.24961068    -0.78200
C3          C  0.94471075  0.95936975  0.25175637     0.82500
N4          N  0.97021890  0.01099180  0.25160366    -0.78200
C5          C  0.02086205  0.03820106  0.24947906     0.82600
N6          N  0.04613205  0.01292584  0.24794081    -0.79900
C7          C  0.30660529  0.68531816  0.24750424     0.80100
N8          N  0.35712147  0.70998205  0.24599107    -0.78200
C9          C  0.38141402  0.68374543  0.24610644     0.82500
N10         N  0.35464581  0.63235385  0.24772953    -0.78200
C11         C  0.30399934  0.60713227  0.24886567     0.82600
N12         N  0.28034219  0.63400230  0.24898969    -0.79900
C13         C  0.61123772  0.54878795  0.99026089     0.80100
N14         N  0.59834323  0.58022514  0.00845636    -0.78200
C15         C  0.58264218  0.57251890  0.04754202     0.82500
N16         N  0.58122554  0.53459323  0.06872693    -0.78200
C17         C  0.59434093  0.50333335  0.05170364     0.82600
N18         N  0.61017839  0.51085403  0.01247069    -0.79900
Zn19       Zn  0.23012937  0.76054929  0.29495851     1.49700
Zn20       Zn  0.23949015  0.86136666  0.25398132     1.49400
Zn21       Zn  0.23592089  0.76784226  0.20368500     1.49100
Zn22       Zn  0.13787210  0.75841680  0.24627700     1.49500
O23         O  0.21039252  0.78753343  0.24975685    -1.84300
O24         O  0.27763282  0.81772363  0.32952372    -0.74900
O25         O  0.27909003  0.89198100  0.20245718    -0.74700
O26         O  0.27628416  0.73383408  0.21566785    -0.74200
O27         O  0.28423344  0.88781807  0.30478888    -0.74900
O28         O  0.26174483  0.71826870  0.28119064    -0.74500
O29         O  0.27613564  0.82720505  0.16963159    -0.75100
O30         O  0.11051983  0.71320769  0.19542487    -0.74500
O31         O  0.18663920  0.88343316  0.25604877    -0.75200
O32         O  0.17941050  0.72165576  0.16864643    -0.74600
O33         O  0.11672071  0.81221458  0.24347372    -0.75100
O34         O  0.10891151  0.71985130  0.29875872    -0.75000
O35         O  0.17240025  0.72037938  0.33030633    -0.74800
C36         C  0.29526160  0.86497697  0.33149790     0.77000
C37         C  0.28961798  0.87350780  0.17187508     0.77500
C38         C  0.28034148  0.71398480  0.24815626     0.76500
C39         C  0.13283756  0.70344765  0.16751168     0.76800
C40         C  0.13980691  0.85985236  0.24961041     0.78000
C41         C  0.12738574  0.70896453  0.32896043     0.77000
C42         C  0.43060413  0.06668626  0.99247358     0.80100
N43         N  0.39710643  0.02245221  0.01021019    -0.78200
C44         C  0.40273035  0.01448614  0.04983643     0.82500
N45         N  0.44069718  0.05050829  0.07170108    -0.78200
C46         C  0.47374025  0.09480760  0.05484637     0.82600
N47         N  0.46876846  0.10303346  0.01507593    -0.79900
C48         C  0.93393979  0.58341919  0.50702813     0.80100
N49         N  0.98081003  0.60873544  0.49164258    -0.78200
C50         C  0.98771698  0.60714053  0.45105206     0.82500
N51         N  0.94840984  0.58192237  0.42608620    -0.78200
C52         C  0.90180286  0.55720411  0.44050537     0.82600
N53         N  0.89460787  0.55780538  0.48119027    -0.79900
Zn54       Zn  0.71764470  0.40127442  0.23156009     1.49700
Zn55       Zn  0.67038469  0.33340751  0.30834058     1.49400
Zn56       Zn  0.60127145  0.31790149  0.23525078     1.49100
Zn57       Zn  0.68213107  0.28292634  0.23174989     1.49500
O58         O  0.66797613  0.33410473  0.25067707    -1.84300
O59         O  0.75837020  0.44809815  0.27951321    -0.74900
O60         O  0.61615337  0.33819276  0.33331051    -0.74700
O61         O  0.60670166  0.36795035  0.19450799    -0.74200
O62         O  0.72956121  0.39193388  0.32891904    -0.74900
O63         O  0.68533555  0.42982172  0.19541333    -0.74500
O64         O  0.56208274  0.32166785  0.28398678    -0.75100
O65         O  0.62902913  0.23856921  0.19309835    -0.74500
O66         O  0.66939074  0.27396712  0.33053794    -0.75200
O67         O  0.56744971  0.25394970  0.20146791    -0.74600
O68         O  0.68372668  0.23866541  0.27747054    -0.75100
O69         O  0.74223614  0.31362616  0.19589756    -0.75000
O70         O  0.76212828  0.39359101  0.19167181    -0.74800
C71         C  0.75917121  0.43612951  0.31659286     0.77000
C72         C  0.57540550  0.33292437  0.32109608     0.77500
C73         C  0.64144854  0.40957998  0.18098825     0.76500
C74         C  0.58618059  0.23045016  0.18401412     0.76800
C75         C  0.67630440  0.24023487  0.31544062     0.78000
C76         C  0.76694309  0.35694255  0.17969762     0.77000
Zn77       Zn  0.53296868  0.75923412  0.29496719     1.49700
Zn78       Zn  0.62720916  0.85411865  0.25001816     1.49400
Zn79       Zn  0.62302926  0.74916108  0.25603292     1.49100
Zn80       Zn  0.53654336  0.75844422  0.20348183     1.49500
O81         O  0.58092717  0.78046182  0.25089173    -1.84300
O82         O  0.54942134  0.81775562  0.32996169    -0.74900
O83         O  0.70073659  0.87407133  0.25094329    -0.74700
O84         O  0.60603910  0.70746424  0.30955931    -0.74200
O85         O  0.61569396  0.88307501  0.30195738    -0.74900
O86         O  0.54322308  0.71532589  0.33152799    -0.74500
O87         O  0.69953986  0.80215938  0.25648502    -0.75100
O88         O  0.55039512  0.71275525  0.17160006    -0.74500
O89         O  0.61804687  0.88409071  0.19707065    -0.75200
O90         O  0.60884886  0.70583763  0.20501698    -0.74600
O91         O  0.55557848  0.81697695  0.16681428    -0.75100
O92         O  0.46094426  0.72187727  0.21378876    -0.75000
O93         O  0.45912720  0.72331197  0.28080794    -0.74800
C94         C  0.58386048  0.86358577  0.33051520     0.77000
C95         C  0.72410715  0.85030235  0.25357438     0.77500
C96         C  0.57310492  0.69938498  0.33623861     0.76500
C97         C  0.58009724  0.69626388  0.17436777     0.76800
C98         C  0.58874610  0.86350719  0.16679526     0.78000
C99         C  0.43655081  0.71100656  0.24682630     0.77000
C100        C  0.63861763  0.06491768  0.50308244     0.80100
N101        N  0.64573910  0.10054740  0.47501523    -0.78200
C102        C  0.63582252  0.08808103  0.43495804     0.82500
N103        N  0.61991811  0.04038556  0.42345579    -0.78200
C104        C  0.61302972  0.00481962  0.45050610     0.82600
N105        N  0.62317192  0.01692677  0.49044416    -0.79900
C106        C  0.43081913  0.36886321  0.50551324     0.80100
N107        N  0.40231425  0.38691353  0.49072417    -0.78200
C108        C  0.40774878  0.40247804  0.45148706     0.82500
N109        N  0.43978666  0.39781718  0.42697358    -0.78200
C110        C  0.46772223  0.37917274  0.44098314     0.82600
N111        N  0.46312108  0.36481441  0.48039094    -0.79900
Zn112      Zn  0.17345156  0.45290491  0.24923626     1.49700
Zn113      Zn  0.17256398  0.36255459  0.29931774     1.49400
Zn114      Zn  0.17864009  0.35966353  0.20603404     1.49100
Zn115      Zn  0.27260961  0.45063095  0.25300213     1.49500
O116        O  0.19957948  0.40680807  0.25200845    -1.84300
O117        O  0.13580546  0.44775600  0.30096344    -0.74900
O118        O  0.13280206  0.28561971  0.28658496    -0.74700
O119        O  0.13280623  0.37069353  0.17119626    -0.74200
O120        O  0.13251028  0.38312373  0.33363072    -0.74900
O121        O  0.12983781  0.43486071  0.19913779    -0.74500
O122        O  0.14429003  0.28428816  0.22047292    -0.75100
O123        O  0.30203309  0.44104197  0.20083299    -0.74500
O124        O  0.22999775  0.37716793  0.33501986    -0.75200
O125        O  0.23643985  0.37764911  0.17004816    -0.74600
O126        O  0.29848117  0.43523820  0.30409147    -0.75100
O127        O  0.29698618  0.52628064  0.25428235    -0.75000
O128        O  0.22764833  0.52783357  0.24597360    -0.74800
C129        C  0.12365539  0.41911369  0.33187484     0.77000
C130        C  0.12665533  0.26077482  0.25373002     0.77500
C131        C  0.11764515  0.40190075  0.17095151     0.76500
C132        C  0.28216294  0.41142411  0.17051480     0.76800
C133        C  0.27684377  0.40620193  0.33419386     0.78000
C134        C  0.27473584  0.55091130  0.24981323     0.77000
C135        C  0.93618732  0.37861614  0.99075214     0.80100
N136        N  0.89924616  0.37912326  0.01229270    -0.78200
C137        C  0.90527396  0.39039208  0.05257603     0.82500
N138        N  0.94743549  0.39991664  0.07138949    -0.78200
C139        C  0.98403600  0.39896167  0.05063043     0.82600
N140        N  0.97839718  0.38782410  0.01030308    -0.79900
C141        C  0.98076302  0.04005166  0.75193210     0.80100
N142        N  0.95481492  0.98859131  0.75236787    -0.78200
C143        C  0.97824992  0.96159630  0.75322864     0.82500
N144        N  0.02886857  0.98685401  0.75435464    -0.78200
C145        C  0.05635110  0.03842365  0.75471532     0.82600
N146        N  0.03157421  0.06448598  0.75353071    -0.79900
Zn147      Zn  0.46348602  0.23468474  0.70573998     1.49700
Zn148      Zn  0.46772849  0.24234409  0.79740021     1.49400
Zn149      Zn  0.37923503  0.25045178  0.75048622     1.49100
Zn150      Zn  0.37221210  0.14491183  0.75685003     1.49500
O151        O  0.41991924  0.21796375  0.75266680    -1.84300
O152        O  0.53887982  0.27055581  0.71636467    -0.74900
O153        O  0.45574404  0.28689139  0.83269829    -0.74700
O154        O  0.39174650  0.28910074  0.69668864    -0.74200
O155        O  0.54153146  0.27878542  0.78319815    -0.74900
O156        O  0.44931984  0.27619496  0.66911992    -0.74500
O157        O  0.39648061  0.29415153  0.80094283    -0.75100
O158        O  0.29911162  0.12670232  0.75993235    -0.74500
O159        O  0.45344705  0.18465843  0.83220373    -0.75200
O160        O  0.30311263  0.19985120  0.75347197    -0.74600
O161        O  0.38730901  0.11621664  0.80731662    -0.75100
O162        O  0.37742056  0.11251961  0.70503289    -0.75000
O163        O  0.44205639  0.17331585  0.67219109    -0.74800
C164        C  0.56363852  0.28607729  0.74934482     0.77000
C165        C  0.42569984  0.30294884  0.83101517     0.77500
C166        C  0.41997103  0.29319434  0.66712432     0.76500
C167        C  0.27722335  0.15204059  0.75749700     0.76800
C168        C  0.42148423  0.13801237  0.83407851     0.78000
C169        C  0.40572661  0.12834283  0.67409895     0.77000
C170        C  0.35359246  0.42548229  0.00814225     0.80100
N171        N  0.33853898  0.45052414  0.98337666    -0.78200
C172        C  0.34697466  0.45282182  0.94275637     0.82500
N173        N  0.37101078  0.43064896  0.92729674    -0.78200
C174        C  0.38669440  0.40629462  0.95149843     0.82600
N175        N  0.37719857  0.40266224  0.99194807    -0.79900
C176        C  0.06396071  0.45335270  0.48924603     0.80100
N177        N  0.01874156  0.42299065  0.50621184    -0.78200
C178        C  0.01027374  0.43005502  0.54531315     0.82500
N179        N  0.04716463  0.46631174  0.56777921    -0.78200
C180        C  0.09239700  0.49679606  0.55199478     0.82600
N181        N  0.10128203  0.48993184  0.51259642    -0.79900
Zn182      Zn  0.87282155  0.25386723  0.74946263     1.49700
Zn183      Zn  0.77451256  0.14863851  0.74161552     1.49400
Zn184      Zn  0.77199978  0.23871363  0.79242318     1.49100
Zn185      Zn  0.77741795  0.24575805  0.70066921     1.49500
O186        O  0.79967239  0.22151815  0.74604775    -1.84300
O187        O  0.89825525  0.20346325  0.75158400    -0.74900
O188        O  0.73761842  0.11675254  0.79379935    -0.74700
O189        O  0.82786748  0.28740974  0.82707373    -0.74200
O190        O  0.82984493  0.13081507  0.73970699    -0.74900
O191        O  0.89787547  0.29765031  0.80080439    -0.74500
O192        O  0.73561526  0.17854916  0.82752666    -0.75100
O193        O  0.74161043  0.28415538  0.71448567    -0.74500
O194        O  0.73095854  0.11986533  0.69036610    -0.75200
O195        O  0.72861689  0.26978922  0.78031869    -0.74600
O196        O  0.73346489  0.18776963  0.66477085    -0.75100
O197        O  0.83527951  0.28991909  0.66686172    -0.75000
O198        O  0.90104658  0.29523906  0.69822729    -0.74800
C199        C  0.87664960  0.15585858  0.74606382     0.77000
C200        C  0.72645153  0.13346008  0.82516090     0.77500
C201        C  0.87459691  0.30651776  0.82838008     0.76500
C202        C  0.72294565  0.28823786  0.74757997     0.76800
C203        C  0.71915813  0.14107273  0.66279416     0.78000
C204        C  0.88129633  0.30519751  0.66843133     0.77000
C205        C  0.06250429  0.63472526  0.00606283     0.80100
N206        N  0.01629564  0.61483828  0.98943434    -0.78200
C207        C  0.01041321  0.60825904  0.94847856     0.82500
N208        N  0.05045812  0.62364180  0.92464148    -0.78200
C209        C  0.09646879  0.64492494  0.94033755     0.82600
N210        N  0.10243407  0.64960101  0.98131433    -0.79900
Zn211      Zn  0.28154971  0.68519756  0.73809772     1.49700
Zn212      Zn  0.33961864  0.67424853  0.81059758     1.49400
Zn213      Zn  0.31582138  0.60296952  0.73586160     1.49100
Zn214      Zn  0.39783936  0.72231145  0.73177937     1.49500
O215        O  0.33369132  0.67121450  0.75304678    -1.84300
O216        O  0.24320823  0.68708433  0.78819404    -0.74900
O217        O  0.33191511  0.61288801  0.83281260    -0.74700
O218        O  0.25739631  0.57444199  0.69726038    -0.74200
O219        O  0.28842211  0.68144767  0.83701375    -0.74900
O220        O  0.23529114  0.63230385  0.69882623    -0.74500
O221        O  0.30604011  0.55599210  0.78384183    -0.75100
O222        O  0.42518999  0.68938555  0.69613384    -0.74500
O223        O  0.40264133  0.72799417  0.83112566    -0.75200
O224        O  0.36953416  0.60796811  0.70005641    -0.74600
O225        O  0.44760776  0.76438366  0.77654440    -0.75100
O226        O  0.38763192  0.76723206  0.69416058    -0.75000
O227        O  0.30921716  0.74721755  0.70281315    -0.74800
C228        C  0.25142531  0.68431199  0.82592799     0.77000
C229        C  0.31719391  0.56837470  0.82110164     0.77500
C230        C  0.23126438  0.59223052  0.68391103     0.76500
C231        C  0.40925699  0.64403597  0.68521751     0.76800
C232        C  0.44260140  0.76114805  0.81507501     0.78000
C233        C  0.35118948  0.77292607  0.68548991     0.77000
Zn234      Zn  0.81974439  0.54958374  0.75030547     1.49700
Zn235      Zn  0.80864633  0.63716522  0.79805195     1.49400
Zn236      Zn  0.81257856  0.63893697  0.70373469     1.49100
Zn237      Zn  0.71735165  0.54548328  0.74948180     1.49500
O238        O  0.78965124  0.59265372  0.75026635    -1.84300
O239        O  0.86113587  0.56445070  0.80163280    -0.74900
O240        O  0.84535741  0.71360063  0.78555909    -0.74700
O241        O  0.85557612  0.62376552  0.66808890    -0.74200
O242        O  0.85241635  0.62326153  0.83303428    -0.74900
O243        O  0.85949037  0.56129088  0.69836209    -0.74500
O244        O  0.85069685  0.71537567  0.71865098    -0.75100
O245        O  0.68834130  0.55882665  0.69946476    -0.74500
O246        O  0.74925894  0.61717746  0.83371032    -0.75200
O247        O  0.75316504  0.62171981  0.66846826    -0.74600
O248        O  0.68680371  0.55173887  0.80193239    -0.75100
O249        O  0.69737203  0.47109391  0.74671297    -0.75000
O250        O  0.76902392  0.47345223  0.75049800    -0.74800
C251        C  0.86938677  0.59359484  0.83210225     0.77000
C252        C  0.86010615  0.73882990  0.75267508     0.77500
C253        C  0.86907781  0.59115659  0.66851504     0.76500
C254        C  0.70702273  0.58898305  0.66954304     0.76800
C255        C  0.70438877  0.58098680  0.83268869     0.78000
C256        C  0.72182136  0.44841827  0.74826958     0.77000
C257        C  0.54435175  0.60912839  0.49568089     0.80100
N258        N  0.57453519  0.59360429  0.51168764    -0.78200
C259        C  0.56752756  0.57624722  0.55061346     0.82500
N260        N  0.53190292  0.57649877  0.57352159    -0.78200
C261        C  0.50228127  0.59230655  0.55823608     0.82600
N262        N  0.50880938  0.60895616  0.51948029    -0.79900
C263        C  0.59930054  0.93355138  0.00337036     0.80100
N264        N  0.63251423  0.98007396  0.98847527    -0.78200
C265        C  0.63496469  0.98770660  0.94767948     0.82500
N266        N  0.60561079  0.94962503  0.92250022    -0.78200
C267        C  0.57309635  0.90332897  0.93623840     0.82600
N268        N  0.56986593  0.89530787  0.97705477    -0.79900
C269        C  0.36731911  0.93888420  0.49232744     0.80100
N270        N  0.36486773  0.90176133  0.51661799    -0.78200
C271        C  0.36824235  0.90757285  0.55767771     0.82500
N272        N  0.37441083  0.95035395  0.57425544    -0.78200
C273        C  0.37728644  0.98743697  0.55085247     0.82600
N274        N  0.37380509  0.98202423  0.50982930    -0.79900
C275        C  0.69498725  0.31536286  0.74797496     0.80100
N276        N  0.71989246  0.36680014  0.74753128    -0.78200
C277        C  0.69471203  0.39219887  0.74783479     0.82500
N278        N  0.64413918  0.36550473  0.74827751    -0.78200
C279        C  0.61871702  0.31416139  0.74841699     0.82600
N280        N  0.64434420  0.28922790  0.74849696    -0.79900
C281        C  0.62770480  0.53943236  0.63136841    -0.20400
C282        C  0.67420537  0.58408864  0.63472159    -0.07000
C283        C  0.68776386  0.62186254  0.60464889     0.13900
C284        C  0.65365990  0.61489848  0.57390889    -0.20500
C285        C  0.60610584  0.57210303  0.57277923    -0.07000
C286        C  0.59345253  0.53314058  0.60107189     0.13900
C287        C  0.54355187  0.48513970  0.59975245    -0.23800
H288        H  0.61737105  0.50952255  0.65321893     0.15100
H289        H  0.66274047  0.64505422  0.55254533     0.15200
C290        C  0.73669124  0.67088991  0.60550051    -0.23800
H291        H  0.54082161  0.45762115  0.62280210     0.05400
H292        H  0.53752728  0.46719416  0.56932819     0.08600
H293        H  0.51346803  0.49309120  0.60602388     0.08600
H294        H  0.76764638  0.66360131  0.60138184     0.08600
H295        H  0.74100166  0.69081192  0.63475916     0.08600
H296        H  0.73942173  0.69652970  0.58071555     0.05400
C297        C  0.41490033  0.58133907  0.64137131    -0.20400
C298        C  0.43491086  0.63232314  0.65264249    -0.07000
C299        C  0.47569482  0.67002964  0.63022326     0.13900
C300        C  0.49460815  0.65547278  0.59770122    -0.20500
C301        C  0.47453184  0.60472292  0.58711928    -0.07000
C302        C  0.43435167  0.56720857  0.60906556     0.13900
C303        C  0.41170030  0.51233418  0.59804473    -0.23800
H304        H  0.38356727  0.55200644  0.65775069     0.15100
H305        H  0.52654120  0.68383291  0.58116544     0.15200
C306        C  0.50018079  0.72555417  0.63995162    -0.23800
H307        H  0.37976296  0.48777190  0.61784200     0.05400
H308        H  0.43972215  0.50077240  0.60133077     0.08600
H309        H  0.39837609  0.50617953  0.56608312     0.08600
H310        H  0.51464919  0.73278784  0.67159046     0.08600
H311        H  0.47327134  0.73854087  0.63592707     0.08600
H312        H  0.53203694  0.74869354  0.61960843     0.05400
C313        C  0.48362431  0.77906007  0.88235125    -0.20400
C314        C  0.48208469  0.79645427  0.84314159    -0.07000
C315        C  0.51306467  0.84784621  0.83419270     0.13900
C316        C  0.54211269  0.88080886  0.86529620    -0.20500
C317        C  0.54182600  0.86419220  0.90540148    -0.07000
C318        C  0.51314443  0.81199250  0.91352585     0.13900
C319        C  0.51314219  0.79016253  0.95441105    -0.23800
H320        H  0.46038943  0.73927992  0.88897833     0.15100
H321        H  0.56440001  0.92041866  0.85796939     0.15200
C322        C  0.51427752  0.86885732  0.79259520    -0.23800
H323        H  0.49042713  0.74835298  0.95421736     0.05400
H324        H  0.49712498  0.80385301  0.97759129     0.08600
H325        H  0.55157256  0.80089666  0.96308330     0.08600
H326        H  0.47677754  0.86139013  0.78417057     0.08600
H327        H  0.52700552  0.85123920  0.76985423     0.08600
H328        H  0.54014474  0.91023818  0.79140482     0.05400
C329        C  0.40308819  0.88593535  0.61542179    -0.20400
C330        C  0.36563611  0.86914829  0.58569766    -0.07000
C331        C  0.32335963  0.82037023  0.58894579     0.13900
C332        C  0.31966641  0.79018761  0.62216479    -0.20500
C333        C  0.35679515  0.80749920  0.65224792    -0.07000
C334        C  0.39932798  0.85584348  0.64857071     0.13900
C335        C  0.43971641  0.87693297  0.68042530    -0.23800
H336        H  0.43494865  0.92377075  0.61332059     0.15100
H337        H  0.28730815  0.75272911  0.62465812     0.15200
C338        C  0.28044586  0.79954487  0.55943168    -0.23800
H339        H  0.46844937  0.91663478  0.67402142     0.05400
H340        H  0.45850651  0.85466749  0.68132074     0.08600
H341        H  0.42358793  0.87595252  0.71066876     0.08600
H342        H  0.28501360  0.82604380  0.53500469     0.08600
H343        H  0.24591750  0.78995957  0.57601695     0.08600
H344        H  0.27581283  0.76476416  0.54501807     0.05400
C345        C  0.17951672  0.65805555  0.92534727    -0.20400
C346        C  0.13905904  0.66193066  0.91250495    -0.07000
C347        C  0.13908310  0.67962297  0.87270708     0.13900
C348        C  0.17762512  0.68900644  0.84605152    -0.20500
C349        C  0.21628540  0.68133299  0.85772173    -0.07000
C350        C  0.21815487  0.66736707  0.89877107     0.13900
C351        C  0.25933955  0.66039959  0.91528916    -0.23800
H352        H  0.17983342  0.64542581  0.95599166     0.15100
H353        H  0.17663475  0.70103304  0.81534393     0.15200
C354        C  0.09914749  0.68939297  0.85776573    -0.23800
H355        H  0.25424326  0.65025383  0.94799614     0.05400
H356        H  0.29548894  0.69605228  0.91249450     0.08600
H357        H  0.26023752  0.62938050  0.89881034     0.08600
H358        H  0.09436787  0.71406158  0.87968128     0.08600
H359        H  0.06361866  0.65338763  0.85360228     0.08600
H360        H  0.10862930  0.70861914  0.82787444     0.05400
C361        C  0.94367985  0.62441299  0.93153462    -0.20400
C362        C  0.96331063  0.59284556  0.92774583    -0.07000
C363        C  0.94693871  0.55712686  0.89586481     0.13900
C364        C  0.91467270  0.55698113  0.86631473    -0.20500
C365        C  0.89889196  0.59232650  0.86730145    -0.07000
C366        C  0.91191240  0.62506796  0.90169930     0.13900
C367        C  0.89471227  0.66242187  0.90702493    -0.23800
H368        H  0.95681759  0.65188971  0.95605658     0.15100
H369        H  0.90346797  0.53026756  0.84139107     0.15200
C370        C  0.96465574  0.51999437  0.89235352    -0.23800
H371        H  0.90853350  0.68410905  0.93586854     0.05400
H372        H  0.85357751  0.64230514  0.90792626     0.08600
H373        H  0.90885118  0.69009102  0.88185488     0.08600
H374        H  0.95619505  0.49803875  0.92084668     0.08600
H375        H  0.00515574  0.53976285  0.88685036     0.08600
H376        H  0.94634024  0.49317965  0.86676287     0.05400
C377        C  0.72686452  0.07185249  0.87231573    -0.20400
C378        C  0.70592655  0.10087803  0.86108228    -0.07000
C379        C  0.66769040  0.09932109  0.88504268     0.13900
C380        C  0.64977414  0.06671298  0.91848064    -0.20500
C381        C  0.66880205  0.03552227  0.92809662    -0.07000
C382        C  0.70847498  0.03892467  0.90530749     0.13900
C383        C  0.72916049  0.00519808  0.91424141    -0.23800
H384        H  0.75692009  0.07392918  0.85448476     0.15100
H385        H  0.61775999  0.06213187  0.93490227     0.15200
C386        C  0.64306419  0.12880425  0.87378679    -0.23800
H387        H  0.76053969  0.01314374  0.89388102     0.05400
H388        H  0.70001337  0.96506641  0.90992641     0.08600
H389        H  0.74274430  0.01115851  0.94610962     0.08600
H390        H  0.62852793  0.11932913  0.84220237     0.08600
H391        H  0.66998893  0.16981827  0.87630070     0.08600
H392        H  0.61149500  0.12010054  0.89417140     0.05400
C393        C  0.90673487  0.37456023  0.61976120    -0.20400
C394        C  0.91162776  0.33438249  0.63385072    -0.07000
C395        C  0.94213709  0.32050952  0.61277424     0.13900
C396        C  0.96941101  0.34922408  0.57943844    -0.20500
C397        C  0.96754824  0.39180299  0.56753079    -0.07000
C398        C  0.93507661  0.40404205  0.58710673     0.13900
C399        C  0.93123326  0.44875702  0.57404213    -0.23800
H400        H  0.88197911  0.38395438  0.63529002     0.15100
H401        H  0.99525241  0.34078447  0.56459483     0.15200
C402        C  0.94609990  0.27568087  0.62525997    -0.23800
H403        H  0.90367403  0.45266852  0.59244971     0.05400
H404        H  0.91952188  0.44416831  0.54169333     0.08600
H405        H  0.96757905  0.48401530  0.57748088     0.08600
H406        H  0.90876084  0.24117177  0.62489977     0.08600
H407        H  0.96227943  0.28173453  0.65623443     0.08600
H408        H  0.97027293  0.26939424  0.60436499     0.05400
C409        C  0.15664437  0.57552112  0.64496496    -0.20400
C410        C  0.19712849  0.56814011  0.64880103    -0.07000
C411        C  0.20676563  0.54307839  0.61693993     0.13900
C412        C  0.17417206  0.52397137  0.58346472    -0.20500
C413        C  0.13225916  0.52907351  0.58099975    -0.07000
C414        C  0.12413978  0.55633838  0.61173654     0.13900
C415        C  0.08122329  0.56553229  0.60980979    -0.23800
H416        H  0.14980972  0.59585135  0.66857037     0.15100
H417        H  0.18006322  0.50267777  0.56011168     0.15200
C418        C  0.25148850  0.53682168  0.61742856    -0.23800
H419        H  0.08378730  0.59201323  0.63398839     0.05400
H420        H  0.04564466  0.52988360  0.61424125     0.08600
H421        H  0.08094978  0.58216194  0.58002040     0.08600
H422        H  0.24913180  0.51276540  0.64332150     0.08600
H423        H  0.28589466  0.57426489  0.61999943     0.08600
H424        H  0.25412371  0.51846196  0.58919835     0.05400
C425        C  0.32704542  0.55146510  0.89302360    -0.20400
C426        C  0.31553018  0.53300868  0.85266571    -0.07000
C427        C  0.30722102  0.48429501  0.84419577     0.13900
C428        C  0.31469003  0.45772495  0.87528331    -0.20500
C429        C  0.33042565  0.47845341  0.91447004    -0.07000
C430        C  0.33538951  0.52541222  0.92371446     0.13900
C431        C  0.35270468  0.55007524  0.96489301    -0.23800
H432        H  0.33203337  0.58800894  0.90056800     0.15100
H433        H  0.30999167  0.42108800  0.86851685     0.15200
C434        C  0.29184746  0.46035610  0.80268111    -0.23800
H435        H  0.35692353  0.58808429  0.96593928     0.05400
H436        H  0.38933181  0.55451829  0.97232206     0.08600
H437        H  0.32528459  0.52682280  0.98841832     0.08600
H438        H  0.32113138  0.48300143  0.78018139     0.08600
H439        H  0.25640460  0.45760297  0.79354678     0.08600
H440        H  0.28599123  0.42166397  0.80218704     0.05400
C441        C  0.43557121  0.10515030  0.61251393    -0.20400
C442        C  0.39589026  0.09477436  0.63860303    -0.07000
C443        C  0.34766412  0.05454805  0.62875159     0.13900
C444        C  0.34154534  0.02348745  0.59543898    -0.20500
C445        C  0.38203424  0.03140909  0.57191210    -0.07000
C446        C  0.42917915  0.07359609  0.57943923     0.13900
C447        C  0.47312289  0.08353944  0.55395172    -0.23800
H448        H  0.47227151  0.13677650  0.61900258     0.15100
H449        H  0.30551838  0.99045722  0.58949067     0.15200
C450        C  0.30238473  0.04347537  0.65298800    -0.23800
H451        H  0.50736603  0.11838525  0.56382690     0.05400
H452        H  0.46581029  0.08807938  0.52168234     0.08600
H453        H  0.47978822  0.05154938  0.55638589     0.08600
H454        H  0.29888809  0.07752903  0.65442889     0.08600
H455        H  0.30500073  0.03132731  0.68412284     0.08600
H456        H  0.26779794  0.01263187  0.63905907     0.05400
C457        C  0.37423610  0.32660145  0.92595214    -0.20400
C458        C  0.40676892  0.37830149  0.93147999    -0.07000
C459        C  0.44975801  0.40395017  0.90730853     0.13900
C460        C  0.45678522  0.37810316  0.87532774    -0.20500
C461        C  0.42101999  0.32789014  0.86702401    -0.07000
C462        C  0.38075363  0.30101690  0.89363283     0.13900
C463        C  0.34388021  0.24575458  0.88708506    -0.23800
H464        H  0.34119603  0.30734430  0.94451995     0.15100
H465        H  0.48869583  0.39766256  0.85561125     0.15200
C466        C  0.48698350  0.45895382  0.91440546    -0.23800
H467        H  0.31485662  0.23055693  0.91092551     0.05400
H468        H  0.36335249  0.22409335  0.88788824     0.08600
H469        H  0.32522444  0.23988115  0.85716608     0.08600
H470        H  0.50153384  0.46453183  0.94596785     0.08600
H471        H  0.46939376  0.48200776  0.90981628     0.08600
H472        H  0.51882128  0.47285718  0.89322931     0.05400
C473        C  0.91859944  0.87896999  0.78623692    -0.20400
C474        C  0.94840468  0.90480763  0.75276305    -0.07000
C475        C  0.94768529  0.87596767  0.71892090     0.13900
C476        C  0.91855516  0.82266265  0.71978302    -0.20500
C477        C  0.88954211  0.79623373  0.75371987    -0.07000
C478        C  0.88968471  0.82558772  0.78742978     0.13900
C479        C  0.85882705  0.80141916  0.82468439    -0.23800
H480        H  0.91829391  0.90090504  0.81200521     0.15100
H481        H  0.91885219  0.80138876  0.69351677     0.15200
C482        C  0.97659083  0.90151893  0.68123485    -0.23800
H483        H  0.86146658  0.82994152  0.84688031     0.05400
H484        H  0.87196665  0.77850807  0.84031288     0.08600
H485        H  0.81921663  0.77731206  0.81594631     0.08600
H486        H  0.01667432  0.92350670  0.68847666     0.08600
H487        H  0.96454802  0.92720782  0.66919688     0.08600
H488        H  0.97099115  0.87389527  0.65700180     0.05400
C489        C  0.88244576  0.07865732  0.73171236    -0.20400
C490        C  0.90544348  0.12826386  0.74707629    -0.07000
C491        C  0.95401001  0.14871441  0.76377751     0.13900
C492        C  0.97728549  0.11942510  0.76447745    -0.20500
C493        C  0.95381557  0.06945888  0.74966774    -0.07000
C494        C  0.90534402  0.04922137  0.73279624     0.13900
C495        C  0.87710113  0.99681733  0.71488613    -0.23800
H496        H  0.84561331  0.06230366  0.71861093     0.15100
H497        H  0.01415648  0.13565759  0.77752012     0.15200
C498        C  0.98149903  0.20091682  0.78200336    -0.23800
H499        H  0.84160153  0.98878447  0.70066239     0.05400
H500        H  0.86764028  0.96839826  0.73906514     0.08600
H501        H  0.89958060  0.99242771  0.69095130     0.08600
H502        H  0.95942322  0.20394328  0.80704197     0.08600
H503        H  0.98861361  0.22931610  0.75831851     0.08600
H504        H  0.01797817  0.21001421  0.79485138     0.05400
C505        C  0.19431662  0.07212573  0.75057183    -0.20400
C506        C  0.22074763  0.12439530  0.75819552    -0.07000
C507        C  0.19237683  0.14780286  0.76584839     0.13900
C508        C  0.13967622  0.11890681  0.76473495    -0.20500
C509        C  0.11310768  0.06656231  0.75633268    -0.07000
C510        C  0.14184371  0.04320870  0.74945244     0.13900
C511        C  0.11843933  0.98789188  0.73975233    -0.23800
H512        H  0.21505054  0.05343686  0.74467395     0.15100
H513        H  0.11907025  0.13772485  0.77063096     0.15200
C514        C  0.21696834  0.20311747  0.77604073    -0.23800
H515        H  0.14654473  0.97674184  0.73431421     0.05400
H516        H  0.09594520  0.97903938  0.71164376     0.08600
H517        H  0.09526226  0.96497795  0.76553857     0.08600
H518        H  0.23919602  0.22593221  0.74984590     0.08600
H519        H  0.24124869  0.21180265  0.80313304     0.08600
H520        H  0.18941046  0.21457146  0.78305790     0.05400
C521        C  0.90272519  0.38429194  0.92414391    -0.20400
C522        C  0.92918567  0.36693485  0.94657920    -0.07000
C523        C  0.94476175  0.33629182  0.92697362     0.13900
C524        C  0.93054675  0.32131806  0.88640420    -0.20500
C525        C  0.90055731  0.33536789  0.86529641    -0.07000
C526        C  0.88822716  0.36899364  0.88383431     0.13900
C527        C  0.85944309  0.38861439  0.86144376    -0.23800
H528        H  0.89177978  0.40869437  0.93873690     0.15100
H529        H  0.93969403  0.29533028  0.87213557     0.15200
C530        C  0.97316199  0.31614958  0.94913695    -0.23800
H531        H  0.85641760  0.41737628  0.87960938     0.05400
H532        H  0.82116603  0.35769113  0.85478221     0.08600
H533        H  0.87853149  0.40643797  0.83259120     0.08600
H534        H  0.95205663  0.29458641  0.97622615     0.08600
H535        H  0.01003892  0.34772484  0.95862033     0.08600
H536        H  0.97953565  0.29049750  0.92964139     0.05400
C537        C  0.06754437  0.38817496  0.39131284    -0.20400
C538        C  0.10201187  0.42931505  0.36827264    -0.07000
C539        C  0.12066553  0.47871554  0.38386668     0.13900
C540        C  0.10658747  0.48524760  0.42295165    -0.20500
C541        C  0.07369196  0.44394532  0.44674677    -0.07000
C542        C  0.05274694  0.39463988  0.43003930     0.13900
C543        C  0.01682300  0.34812259  0.45329498    -0.23800
H544        H  0.05321544  0.35041711  0.37935201     0.15100
H545        H  0.12209100  0.52297489  0.43534212     0.15200
C546        C  0.15745867  0.52470626  0.36059186    -0.23800
H547        H  0.00709072  0.31299374  0.43639231     0.05400
H548        H  0.98174482  0.34793737  0.45851533     0.08600
H549        H  0.03349476  0.34698304  0.48278222     0.08600
H550        H  0.14050849  0.52701511  0.33164321     0.08600
H551        H  0.19123533  0.52278126  0.35411864     0.08600
H552        H  0.16902628  0.56002132  0.37790809     0.05400
C553        C  0.30491690  0.37464550  0.11358109    -0.20400
C554        C  0.31076871  0.41792334  0.13306567    -0.07000
C555        C  0.33504453  0.46454769  0.11243594     0.13900
C556        C  0.35055905  0.46606203  0.07220955    -0.20500
C557        C  0.34277694  0.42235946  0.05213466    -0.07000
C558        C  0.32079208  0.37622031  0.07345162     0.13900
C559        C  0.31079075  0.32788230  0.05335314    -0.23800
H560        H  0.28564566  0.33886295  0.12929881     0.15100
H561        H  0.36741344  0.50136446  0.05576967     0.15200
C562        C  0.34160458  0.51210487  0.13156240    -0.23800
H563        H  0.29086350  0.29506927  0.07389126     0.05400
H564        H  0.34631081  0.33056911  0.04483993     0.08600
H565        H  0.28752420  0.32051392  0.02578923     0.08600
H566        H  0.36501853  0.52154959  0.15925657     0.08600
H567        H  0.30490116  0.50686550  0.13976426     0.08600
H568        H  0.36001634  0.54468932  0.11060697     0.05400
C569        C  0.03076312  0.36184988  0.07869553    -0.20400
C570        C  0.02632748  0.40445796  0.07399703    -0.07000
C571        C  0.05400963  0.44687592  0.09922904     0.13900
C572        C  0.08378290  0.44486081  0.12995307    -0.20500
C573        C  0.08658883  0.40133031  0.13646681    -0.07000
C574        C  0.06026500  0.35938552  0.10975172     0.13900
C575        C  0.06058418  0.31089934  0.11461360    -0.23800
H576        H  0.00838878  0.32907155  0.05966897     0.15100
H577        H  0.10457821  0.47770890  0.14926151     0.15200
C578        C  0.05246927  0.49471955  0.09477139    -0.23800
H579        H  0.03557128  0.28168201  0.09239196     0.05400
H580        H  0.04773966  0.29549573  0.14552688     0.08600
H581        H  0.09847264  0.31762973  0.10940732     0.08600
H582        H  0.03755952  0.50195151  0.12293764     0.08600
H583        H  0.02952337  0.49362749  0.06865991     0.08600
H584        H  0.09059609  0.52660514  0.08969386     0.05400
C585        C  0.41374403  0.28293315  0.59338247    -0.20400
C586        C  0.41600371  0.31221842  0.62696770    -0.07000
C587        C  0.41749222  0.35818844  0.62051259     0.13900
C588        C  0.42091978  0.37563208  0.58034555    -0.20500
C589        C  0.42261838  0.34776829  0.54697181    -0.07000
C590        C  0.41658452  0.29970196  0.55363734     0.13900
C591        C  0.41179277  0.26499303  0.51914336    -0.23800
H592        H  0.41055516  0.24665078  0.59837584     0.15100
H593        H  0.42397386  0.41175800  0.57506367     0.15200
C594        C  0.41726003  0.38939591  0.65565648    -0.23800
H595        H  0.40228811  0.22713427  0.53022569     0.05400
H596        H  0.44729484  0.28050366  0.50249101     0.08600
H597        H  0.38184389  0.25988370  0.49804711     0.08600
H598        H  0.44950350  0.39966752  0.67584766     0.08600
H599        H  0.38243476  0.36759101  0.67316306     0.08600
H600        H  0.41947074  0.42467904  0.64523456     0.05400
C601        C  0.35286634  0.45131858  0.37670189    -0.20400
C602        C  0.30687078  0.40723643  0.36950560    -0.07000
C603        C  0.29126150  0.36545732  0.39585285     0.13900
C604        C  0.32325184  0.36809731  0.42682365    -0.20500
C605        C  0.37064212  0.41044886  0.43141921    -0.07000
C606        C  0.38513551  0.45320495  0.40712619     0.13900
C607        C  0.43517339  0.50025944  0.41269008    -0.23800
H608        H  0.36439343  0.48395549  0.35760482     0.15100
H609        H  0.31303181  0.33510822  0.44517547     0.15200
C610        C  0.24279284  0.31657234  0.39014954    -0.23800
H611        H  0.44010184  0.53075355  0.39189736     0.05400
H612        H  0.46527100  0.49222869  0.40640460     0.08600
H613        H  0.43898001  0.51427773  0.44439883     0.08600
H614        H  0.24072615  0.30155473  0.35902062     0.08600
H615        H  0.21120753  0.32263220  0.39529428     0.08600
H616        H  0.23876699  0.28732334  0.41195705     0.05400
C617        C  0.67575186  0.05777382  0.56788906    -0.20400
C618        C  0.65228082  0.07931204  0.54643151    -0.07000
C619        C  0.64410746  0.11515408  0.56641029     0.13900
C620        C  0.66296555  0.13122317  0.60580600    -0.20500
C621        C  0.69036430  0.11306235  0.62597223    -0.07000
C622        C  0.69523761  0.07437389  0.60721314     0.13900
C623        C  0.72319808  0.05230522  0.62719584    -0.23800
H624        H  0.68125495  0.02960430  0.55297245     0.15100
H625        H  0.65800867  0.15995185  0.62035706     0.15200
C626        C  0.61534826  0.13658236  0.54673046    -0.23800
H627        H  0.72399645  0.02317802  0.60777537     0.05400
H628        H  0.70501119  0.03412947  0.65621919     0.08600
H629        H  0.76216276  0.08238894  0.63309609     0.08600
H630        H  0.57873334  0.10544447  0.53619834     0.08600
H631        H  0.63625039  0.16071661  0.52066600     0.08600
H632        H  0.60868150  0.16036310  0.56823028     0.05400
C633        C  0.56131197  0.69840515  0.40981609    -0.20400
C634        C  0.57076102  0.67619428  0.37634215    -0.07000
C635        C  0.57427530  0.63279965  0.38254845     0.13900
C636        C  0.56631074  0.61183028  0.42193761    -0.20500
C637        C  0.55443688  0.63306281  0.45494151    -0.07000
C638        C  0.55297014  0.67772286  0.44865798     0.13900
C639        C  0.54387575  0.70513863  0.48264856    -0.23800
H640        H  0.55982374  0.73246369  0.40541344     0.15100
H641        H  0.56802736  0.57799747  0.42675954     0.15200
C642        C  0.58457420  0.60772377  0.34775912    -0.23800
H643        H  0.54908492  0.74187235  0.47258173     0.05400
H644        H  0.57029733  0.71290752  0.50799933     0.08600
H645        H  0.50514607  0.68248610  0.49358883     0.08600
H646        H  0.62141072  0.63417836  0.33455889     0.08600
H647        H  0.55552464  0.59641621  0.32401179     0.08600
H648        H  0.58479948  0.57346414  0.35773348     0.05400
C649        C  0.64093482  0.93707619  0.06896824    -0.20400
C650        C  0.59688644  0.92347721  0.04768554    -0.07000
C651        C  0.55121902  0.89780821  0.06856295     0.13900
C652        C  0.55029251  0.88215007  0.10873696    -0.20500
C653        C  0.59386176  0.89213210  0.12906911    -0.07000
C654        C  0.64002742  0.92156046  0.10936412     0.13900
C655        C  0.68808357  0.93383363  0.12967527    -0.23800
H656        H  0.67603718  0.95752441  0.05318330     0.15100
H657        H  0.51496871  0.86028318  0.12397423     0.15200
C658        C  0.50338035  0.88752982  0.04898378    -0.23800
H659        H  0.72043671  0.95599857  0.10954475     0.05400
H660        H  0.68729006  0.89850427  0.13778470     0.08600
H661        H  0.69366092  0.95651021  0.15757247     0.08600
H662        H  0.49383273  0.86140828  0.02289473     0.08600
H663        H  0.50711388  0.92345480  0.03841483     0.08600
H664        H  0.47190670  0.86994246  0.07059011     0.05400
C665        C  0.63427270  0.91965833  0.38660838    -0.20400
C666        C  0.58827552  0.89375063  0.36666708    -0.07000
C667        C  0.54731646  0.89556138  0.38255042     0.13900
C668        C  0.55464611  0.92714965  0.41582546    -0.20500
C669        C  0.60168386  0.95640400  0.43346614    -0.07000
C670        C  0.64134578  0.95084430  0.42008168     0.13900
C671        C  0.69201803  0.98081019  0.43930351    -0.23800
H672        H  0.66508434  0.91656997  0.37523863     0.15100
H673        H  0.52472800  0.93269547  0.42567236     0.15200
C674        C  0.49688135  0.86745579  0.36273704    -0.23800
H675        H  0.71888984  0.97186926  0.42530411     0.05400
H676        H  0.68948706  0.97198648  0.47219781     0.08600
H677        H  0.70661908  0.02178265  0.43559925     0.08600
H678        H  0.48139342  0.82622127  0.36522524     0.08600
H679        H  0.49971688  0.87803414  0.33022668     0.08600
H680        H  0.47051699  0.87650692  0.37746770     0.05400
C681        C  0.56466951  0.35681169  0.39121242    -0.20400
C682        C  0.54534887  0.34229040  0.35136898    -0.07000
C683        C  0.50013454  0.33998086  0.34181228     0.13900
C684        C  0.47612422  0.35209122  0.37190909    -0.20500
C685        C  0.49573416  0.36681113  0.41140986    -0.07000
C686        C  0.54072482  0.36918810  0.42114402     0.13900
C687        C  0.56481899  0.38651274  0.46238014    -0.23800
H688        H  0.59941585  0.35928656  0.39919698     0.15100
H689        H  0.44129481  0.34976919  0.36443162     0.15200
C690        C  0.47669007  0.32527336  0.30020102    -0.23800
H691        H  0.60169490  0.38957373  0.46362181     0.05400
H692        H  0.54137022  0.35917313  0.48598130     0.08600
H693        H  0.57023525  0.42422826  0.46956353     0.08600
H694        H  0.46861280  0.28676609  0.29231318     0.08600
H695        H  0.50187928  0.35269183  0.27731971     0.08600
H696        H  0.44113390  0.32501348  0.29869445     0.05400
C697        C  0.63474108  0.15126783  0.33558774    -0.20400
C698        C  0.67216103  0.20095206  0.34315679    -0.07000
C699        C  0.69849812  0.21336213  0.38037047     0.13900
C700        C  0.68544279  0.17593824  0.40983534    -0.20500
C701        C  0.64673679  0.12629419  0.40305139    -0.07000
C702        C  0.62134032  0.11368382  0.36494878     0.13900
C703        C  0.57858196  0.06155429  0.35512711    -0.23800
H704        H  0.61423850  0.14237425  0.30720994     0.15100
H705        H  0.70586548  0.18553723  0.43825444     0.15200
C706        C  0.74099334  0.26592402  0.38881339    -0.23800
H707        H  0.56044882  0.06057442  0.32582334     0.05400
H708        H  0.54997721  0.04902047  0.37921521     0.08600
H709        H  0.59189265  0.03453117  0.35213317     0.08600
H710        H  0.72765063  0.29302697  0.38986831     0.08600
H711        H  0.76930466  0.27720480  0.36460105     0.08600
H712        H  0.75918903  0.26832763  0.41841276     0.05400
C713        C  0.82624907  0.33505483  0.08626070    -0.20400
C714        C  0.86434437  0.38417742  0.07821934    -0.07000
C715        C  0.86882660  0.42452318  0.10179651     0.13900
C716        C  0.83648373  0.41445323  0.13449151    -0.20500
C717        C  0.80015768  0.36477470  0.14467491    -0.07000
C718        C  0.79402970  0.32457047  0.11914637     0.13900
C719        C  0.75393625  0.27048140  0.12581922    -0.23800
H720        H  0.82356968  0.30431468  0.06807811     0.15100
H721        H  0.84050627  0.44565273  0.15277379     0.15200
C722        C  0.90804789  0.47815582  0.09255106    -0.23800
H723        H  0.75379893  0.24507931  0.10170934     0.05400
H724        H  0.71696403  0.26722429  0.12543717     0.08600
H725        H  0.75999223  0.25688905  0.15521781     0.08600
H726        H  0.90346621  0.48729483  0.06082249     0.08600
H727        H  0.94552836  0.48322474  0.09620836     0.08600
H728        H  0.90549557  0.50537729  0.11313720     0.05400
C729        C  0.88498775  0.54060140  0.56847631    -0.20400
C730        C  0.92461346  0.58416507  0.55129585    -0.07000
C731        C  0.95077344  0.62808717  0.57576314     0.13900
C732        C  0.93387448  0.62836683  0.61530938    -0.20500
C733        C  0.89252452  0.58563370  0.63142971    -0.07000
C734        C  0.86877192  0.54069164  0.60820282     0.13900
C735        C  0.82419684  0.49366830  0.62413797    -0.23800
H736        H  0.86543594  0.50664019  0.55017315     0.15100
H737        H  0.95182077  0.66273825  0.63324732     0.15200
C738        C  0.99466111  0.67569627  0.55991557    -0.23800
H739        H  0.80942628  0.46241405  0.60155264     0.05400
H740        H  0.79414436  0.50146365  0.63149847     0.08600
H741        H  0.83460110  0.48080153  0.65189922     0.08600
H742        H  0.98384874  0.68850538  0.53233541     0.08600
H743        H  0.02528367  0.66879395  0.55258528     0.08600
H744        H  0.00906474  0.70670805  0.58269933     0.05400
C745        C  0.86861914  0.54752486  0.37041504    -0.20400
C746        C  0.86068791  0.53006648  0.41087177    -0.07000
C747        C  0.81682904  0.48477882  0.42028497     0.13900
C748        C  0.78384956  0.45709963  0.38885986    -0.20500
C749        C  0.79354771  0.47234194  0.34779799    -0.07000
C750        C  0.83592840  0.51927328  0.33874778     0.13900
C751        C  0.84808793  0.53930888  0.29604547    -0.23800
H752        H  0.90175179  0.58293427  0.36317535     0.15100
H753        H  0.75067507  0.42203266  0.39664840     0.15200
C754        C  0.80538012  0.46363823  0.46274279    -0.23800
H755        H  0.88299096  0.57644774  0.29482616     0.05400
H756        H  0.81785543  0.54437876  0.28385065     0.08600
H757        H  0.85291013  0.51277650  0.27638379     0.08600
H758        H  0.80140165  0.48991316  0.48338059     0.08600
H759        H  0.83547462  0.45764673  0.47385145     0.08600
H760        H  0.77016660  0.42679022  0.46397565     0.05400
C761        C  0.46932312  0.10384347  0.92677967    -0.20400
C762        C  0.42562303  0.07654706  0.94923215    -0.07000
C763        C  0.37949539  0.06306002  0.93082228     0.13900
C764        C  0.37887373  0.07987863  0.89127687    -0.20500
C765        C  0.42310011  0.11061413  0.87022386    -0.07000
C766        C  0.46880902  0.12127107  0.88769961     0.13900
C767        C  0.51744942  0.15144992  0.86564073    -0.23800
H768        H  0.50448357  0.11316224  0.94052357     0.15100
H769        H  0.34397316  0.07202032  0.87791715     0.15200
C770        C  0.33119706  0.03418597  0.95342671    -0.23800
H771        H  0.54844413  0.15174365  0.88231881     0.05400
H772        H  0.52724505  0.19126538  0.86253709     0.08600
H773        H  0.51484909  0.13476205  0.83513102     0.08600
H774        H  0.33285357  0.05465244  0.98177267     0.08600
H775        H  0.32385744  0.99592435  0.96087764     0.08600
H776        H  0.29934044  0.02957021  0.93506903     0.05400
C777        C  0.53232375  0.11871513  0.11178886    -0.20400
C778        C  0.51052725  0.13409509  0.08216509    -0.07000
C779        C  0.51597211  0.18236969  0.08515473     0.13900
C780        C  0.54003874  0.21248014  0.11932023    -0.20500
C781        C  0.55966718  0.19593098  0.14991280    -0.07000
C782        C  0.55736030  0.14920898  0.14537207     0.13900
C783        C  0.57922524  0.13023565  0.17656739    -0.23800
H784        H  0.52807337  0.08162026  0.10934035     0.15100
H785        H  0.54375316  0.24931018  0.12213479     0.15200
C786        C  0.49487890  0.20149696  0.05348054    -0.23800
H787        H  0.57091389  0.09145785  0.16936178     0.05400
H788        H  0.56365762  0.12957754  0.20699555     0.08600
H789        H  0.62017032  0.15489530  0.17747008     0.08600
H790        H  0.45410385  0.17596427  0.05115911     0.08600
H791        H  0.51217091  0.20346739  0.02360096     0.08600
H792        H  0.50220761  0.23985628  0.06101773     0.05400
C793        C  0.06856829  0.68156689  0.11428091    -0.20400
C794        C  0.10587230  0.67427177  0.13069341    -0.07000
C795        C  0.12211745  0.64609873  0.10805513     0.13900
C796        C  0.10450860  0.63085048  0.06830145    -0.20500
C797        C  0.07081764  0.64239011  0.05051909    -0.07000
C798        C  0.05088850  0.66609826  0.07438851     0.08300
C799        C  0.01369277  0.67838235  0.05720075    -0.23800
H800        H  0.05578013  0.70273479  0.13159546     0.15100
H801        H  0.11873112  0.61148143  0.05027548     0.15200
C802        C  0.15832237  0.63219501  0.12519440    -0.23800
H803        H  0.00374697  0.69884802  0.07955818     0.05400
H804        H  0.97912410  0.64306603  0.04874659     0.08600
H805        H  0.02925967  0.70255949  0.02997618     0.08600
H806        H  0.14449447  0.61272722  0.15471086     0.08600
H807        H  0.19556070  0.66607350  0.12927071     0.08600
H808        H  0.16320298  0.60649613  0.10454523     0.05400
C809        C  0.32218241  0.93307064  0.38316064    -0.20400
C810        C  0.32538142  0.89223949  0.36793478    -0.07000
C811        C  0.35120922  0.87400879  0.39110053     0.13900
C812        C  0.36805566  0.89338707  0.43025151    -0.20500
C813        C  0.35922935  0.92978371  0.44759476    -0.07000
C814        C  0.33839185  0.95196793  0.42269771     0.13900
C815        C  0.33018947  0.99340423  0.43775718    -0.23800
H816        H  0.30343768  0.94785287  0.36521537     0.15100
H817        H  0.38610046  0.87792252  0.44829667     0.15200
C818        C  0.36059427  0.83345943  0.37551271    -0.23800
H819        H  0.31298448  0.00536626  0.41413689     0.05400
H820        H  0.36625250  0.02701339  0.44622465     0.08600
H821        H  0.30492798  0.98016938  0.46429721     0.08600
H822        H  0.37890839  0.84429597  0.34539146     0.08600
H823        H  0.32546251  0.79676561  0.37323713     0.08600
H824        H  0.38501814  0.82749883  0.39636959     0.05400
C825        C  0.08622744  0.63667144  0.37562653    -0.20400
C826        C  0.09698089  0.68508437  0.36483473    -0.07000
C827        C  0.08125641  0.71153014  0.38987151     0.13900
C828        C  0.05110635  0.68708576  0.42335813    -0.20500
C829        C  0.03582826  0.63673559  0.43154060    -0.07000
C830        C  0.05505713  0.61180107  0.40854575     0.13900
C831        C  0.04066395  0.55815337  0.41766754    -0.23800
H832        H  0.10027521  0.61750685  0.35714511     0.15100
H833        H  0.03557406  0.70566879  0.44078490     0.15200
C834        C  0.09554130  0.76514543  0.38082228    -0.23800
H835        H  0.05923364  0.54449467  0.39685503     0.05400
H836        H  0.00001557  0.53275977  0.41414261     0.08600
H837        H  0.05156409  0.55570206  0.44932019     0.08600
H838        H  0.08054861  0.76706606  0.35073172     0.08600
H839        H  0.13657968  0.78943562  0.38060942     0.08600
H840        H  0.08079213  0.78040142  0.40394977     0.05400
C841        C  0.30394934  0.94216855  0.12552236    -0.20400
C842        C  0.31594676  0.90587295  0.13699454    -0.07000
C843        C  0.35138708  0.90042805  0.11424663     0.13900
C844        C  0.37589437  0.93355693  0.08214497    -0.20500
C845        C  0.36525767  0.97106026  0.07206286    -0.07000
C846        C  0.32823314  0.97484230  0.09322753     0.13900
C847        C  0.31614183  0.01501479  0.08291490    -0.23800
H848        H  0.27596002  0.94546549  0.14227960     0.15100
H849        H  0.40560376  0.93223125  0.06640658     0.15200
C850        C  0.36586753  0.86208329  0.12494837    -0.23800
H851        H  0.28620880  0.01269178  0.10249244     0.05400
H852        H  0.30357493  0.01044266  0.05081482     0.08600
H853        H  0.34947510  0.05297344  0.08711798     0.08600
H854        H  0.33395246  0.82340133  0.12014795     0.08600
H855        H  0.37831107  0.86707143  0.15712006     0.08600
H856        H  0.39667514  0.86597244  0.10566898     0.05400
C857        C  0.62389768  0.51636915  0.92480220    -0.20400
C858        C  0.63031338  0.55785038  0.94773551    -0.07000
C859        C  0.65727133  0.60669394  0.93034770     0.13900
C860        C  0.67876632  0.61255675  0.89178989    -0.20500
C861        C  0.67365292  0.57124505  0.86960346    -0.07000
C862        C  0.64501043  0.52229435  0.88609824     0.13900
C863        C  0.63883357  0.47631057  0.86427257    -0.23800
H864        H  0.60290815  0.47891506  0.93761249     0.15100
H865        H  0.70092250  0.65000635  0.87918839     0.15200
C866        C  0.66587112  0.65340829  0.95252626    -0.23800
H867        H  0.61698944  0.44151456  0.88239876     0.05400
H868        H  0.67573789  0.48073645  0.85835081     0.08600
H869        H  0.61888001  0.47096738  0.83510189     0.08600
H870        H  0.68453787  0.65693634  0.98208972     0.08600
H871        H  0.63000500  0.65168460  0.95746868     0.08600
H872        H  0.68982818  0.68818054  0.93496385     0.05400
C873        C  0.65005340  0.47759813  0.08190583    -0.20400
C874        C  0.60234387  0.47077563  0.07952628    -0.07000
C875        C  0.56707254  0.44214016  0.10963935     0.13900
C876        C  0.58125129  0.42331707  0.14243718    -0.20500
C877        C  0.62996483  0.43275849  0.14634988    -0.07000
C878        C  0.66444841  0.45908285  0.11491508     0.13900
C879        C  0.71621757  0.46735339  0.11539323    -0.23800
H880        H  0.67710136  0.49997892  0.05896774     0.15100
H881        H  0.55419864  0.40176012  0.16562315     0.15200
C882        C  0.51430203  0.43108281  0.10726118    -0.23800
H883        H  0.73697321  0.48644816  0.08741489     0.05400
H884        H  0.71454910  0.43056865  0.11737985     0.08600
H885        H  0.73738330  0.49157729  0.14162073     0.08600
H886        H  0.49766724  0.41309189  0.07758135     0.08600
H887        H  0.51302045  0.46617480  0.11071346     0.08600
H888        H  0.49095868  0.40505066  0.13167011     0.05400
C889        C  0.53636564  0.63083156  0.12166120    -0.20400
C890        C  0.58152391  0.66668241  0.13975409    -0.07000
C891        C  0.62672933  0.67698599  0.12192732     0.13900
C892        C  0.62553630  0.64945881  0.08756643    -0.20500
C893        C  0.58047000  0.61130666  0.07136744    -0.07000
C894        C  0.53535145  0.60229321  0.08804761     0.13900
C895        C  0.48636372  0.56172802  0.07099897    -0.23800
H896        H  0.50173053  0.62401970  0.13470624     0.15100
H897        H  0.66002551  0.65515591  0.07504008     0.15200
C898        C  0.67621743  0.71685941  0.13878884    -0.23800
H899        H  0.45464032  0.56008339  0.08743228     0.05400
H900        H  0.48328879  0.52435657  0.07363159     0.08600
H901        H  0.48348416  0.56942082  0.03848384     0.08600
H902        H  0.68142796  0.70654691  0.16990469     0.08600
H903        H  0.67812290  0.75381440  0.13963135     0.08600
H904        H  0.70747025  0.72106992  0.11992840     0.05400
C905        C  0.86238527  0.95274226  0.23680910    -0.20400
C906        C  0.88816580  0.93028720  0.25303792    -0.07000
C907        C  0.85913302  0.88168587  0.27063382     0.13900
C908        C  0.80647959  0.85687171  0.26996115    -0.20500
C909        C  0.78070441  0.87914743  0.25329899    -0.07000
C910        C  0.80988067  0.92847583  0.23684971     0.13900
C911        C  0.78641287  0.95607715  0.21836049    -0.23800
H912        H  0.88361204  0.98989191  0.22355335     0.15100
H913        H  0.78519936  0.81979460  0.28333271     0.15200
C914        C  0.88302134  0.85625692  0.29198347    -0.23800
H915        H  0.81449154  0.99289403  0.20536704     0.05400
H916        H  0.76591941  0.96393613  0.24194147     0.08600
H917        H  0.76084509  0.93315885  0.19341130     0.08600
H918        H  0.90873411  0.88157511  0.31595786     0.08600
H919        H  0.90350064  0.84651086  0.26993190     0.08600
H920        H  0.85512658  0.82068808  0.30678552     0.05400
C921        C  0.03254684  0.12044770  0.27618204    -0.20400
C922        C  0.04841023  0.09523878  0.24996329    -0.07000
C923        C  0.08988991  0.12517048  0.22470167     0.13900
C924        C  0.11411050  0.17843876  0.22666644    -0.20500
C925        C  0.09911504  0.20370371  0.25368389    -0.07000
C926        C  0.05740183  0.17377295  0.27870859     0.13900
C927        C  0.03773967  0.19763980  0.30737876    -0.23800
H928        H  0.00071937  0.09816212  0.29540229     0.15100
H929        H  0.14555712  0.20065799  0.20705478     0.15200
C930        C  0.10799384  0.10139270  0.19441216    -0.23800
H931        H  0.00350472  0.16896377  0.32292078     0.05400
H932        H  0.02868125  0.22293434  0.29029540     0.08600
H933        H  0.06578273  0.21949206  0.33120076     0.08600
H934        H  0.07711000  0.07564864  0.17390256     0.08600
H935        H  0.12266019  0.08009930  0.21045974     0.08600
H936        H  0.13840501  0.13009807  0.17531631     0.05400
C937        C  0.06590909  0.86632548  0.22709601    -0.20400
C938        C  0.11116125  0.88764060  0.24874472    -0.07000
C939        C  0.12712531  0.93437276  0.26901307     0.13900
C940        C  0.09734245  0.95688898  0.26793652    -0.20500
C941        C  0.05162913  0.93494573  0.24704616    -0.07000
C942        C  0.03662087  0.88937467  0.22544392     0.13900
C943        C  0.99104776  0.86591093  0.19880667    -0.23800
H944        H  0.05347724  0.83131794  0.21057780     0.15100
H945        H  0.10983749  0.99210828  0.28414161     0.15200
C946        C  0.17501420  0.96061078  0.29275023    -0.23800
H947        H  0.98687624  0.83280946  0.18171529     0.05400
H948        H  0.99357783  0.89390199  0.17634723     0.08600
H949        H  0.95736522  0.85270782  0.21749075     0.08600
H950        H  0.20684507  0.97185079  0.27204047     0.08600
H951        H  0.17479696  0.93519478  0.31665257     0.08600
H952        H  0.18062956  0.99539407  0.30794969     0.05400
loop_ 
_geom_bond_atom_site_label_1 
_geom_bond_atom_site_label_2 
_geom_bond_distance 
_geom_bond_site_symmetry_2 
_ccdc_geom_bond_type 
C1            N2   1.370   1_455  A
C1            N6   1.366   1_565  A
C1          C941   1.519       .  S
N2            C3   1.371       .  A
C3            N4   1.370   1_565  A
C3          C906   1.525       .  S
N4            C5   1.368   1_655  A
C5            N6   1.365       .  A
C5          C922   1.514       .  S
C7            N8   1.364       .  A
C7           N12   1.363       .  A
C7           C38   1.483       .  S
N8            C9   1.364       .  A
C9           N10   1.365       .  A
C9           C99   1.487       .  S
N10          C11   1.367       .  A
C11          N12   1.364       .  A
C11         C134   1.493       .  S
C13          N14   1.362   1_556  A
C13          N18   1.368   1_556  A
C13         C858   1.493       .  S
N14          C15   1.356       .  A
C15          N16   1.345       .  A
C15         C893   1.458       .  S
N16          C17   1.346       .  A
C17          N18   1.362       .  A
C17         C874   1.474       .  S
Zn19         O23   1.954       .  S
Zn19         O24   1.981       .  S
Zn19         O28   2.049       .  S
Zn19         O35   1.974       .  S
Zn20         O23   1.979       .  S
Zn20         O25   2.033       .  S
Zn20         O27   2.060       .  S
Zn20         O31   2.087       .  S
Zn21         O23   1.949       .  S
Zn21         O26   2.051       .  S
Zn21         O29   1.966       .  S
Zn21         O32   1.976       .  S
Zn22         O23   1.975       .  S
Zn22         O30   2.059       .  S
Zn22         O33   2.078       .  S
Zn22         O34   2.036       .  S
O24          C36   1.269       .  A
O25          C37   1.278       .  A
O26          C38   1.272       .  A
O27          C36   1.280       .  A
O28          C38   1.272       .  A
O29          C37   1.268       .  A
O30          C39   1.280       .  A
O31          C40   1.280       .  A
O32          C39   1.269       .  A
O33          C40   1.279       .  A
O34          C41   1.278       .  A
O35          C41   1.268       .  A
C36         C810   1.488       .  S
C37         C842   1.473       .  S
C39         C794   1.485       .  S
C40         C938   1.524       .  S
C41         C826   1.463       .  S
C42          N43   1.361   1_556  A
C42          N47   1.365   1_556  A
C42         C762   1.481       .  S
N43          C44   1.356       .  A
C44          N45   1.346       .  A
C44         C845   1.455   1_545  S
N45          C46   1.347       .  A
C46          N47   1.358       .  A
C46         C778   1.473       .  S
C48          N49   1.364       .  A
C48          N53   1.366       .  A
C48         C730   1.489       .  S
N49          C50   1.358       .  A
C50          N51   1.346       .  A
C50         C829   1.457   1_655  S
N51          C52   1.345       .  A
C52          N53   1.360       .  A
C52         C746   1.484       .  S
Zn54         O58   1.959       .  S
Zn54         O59   2.074       .  S
Zn54         O63   2.031       .  S
Zn54         O70   2.015       .  S
Zn55         O58   1.900       .  S
Zn55         O60   1.960       .  S
Zn55         O62   1.932       .  S
Zn55         O66   1.961       .  S
Zn56         O58   1.951       .  S
Zn56         O61   1.990       .  S
Zn56         O64   2.060       .  S
Zn56         O67   2.024       .  S
Zn57         O58   1.944       .  S
Zn57         O65   1.979       .  S
Zn57         O68   2.053       .  S
Zn57         O69   2.009       .  S
O59          C71   1.280       .  A
O60          C72   1.266       .  A
O61          C73   1.270       .  A
O62          C71   1.265       .  A
O63          C73   1.275       .  A
O64          C72   1.278       .  A
O65          C74   1.269       .  A
O66          C75   1.265       .  A
O67          C74   1.277       .  A
O68          C75   1.277       .  A
O69          C76   1.273       .  A
O70          C76   1.275       .  A
C71         C749   1.491       .  S
C72         C682   1.497       .  S
C73         C877   1.485       .  S
C74         C781   1.473       .  S
C75         C698   1.471       .  S
C76         C717   1.490       .  S
Zn77         O81   1.950       .  S
Zn77         O82   1.970       .  S
Zn77         O86   1.959       .  S
Zn77         O93   2.044       .  S
Zn78         O81   1.977       .  S
Zn78         O83   2.060       .  S
Zn78         O85   2.041       .  S
Zn78         O89   2.063       .  S
Zn79         O81   1.999       .  S
Zn79         O84   2.089       .  S
Zn79         O87   2.104       .  S
Zn79         O90   2.043       .  S
Zn80         O81   1.963       .  S
Zn80         O88   1.971       .  S
Zn80         O91   1.998       .  S
Zn80         O92   2.069       .  S
O82          C94   1.268       .  A
O83          C95   1.276       .  A
O84          C96   1.281       .  A
O85          C94   1.279       .  A
O86          C96   1.269       .  A
O87          C95   1.282       .  A
O88          C97   1.271       .  A
O89          C98   1.279       .  A
O90          C97   1.280       .  A
O91          C98   1.273       .  A
O92          C99   1.274       .  A
O93          C99   1.271       .  A
C94         C666   1.469       .  S
C95         C909   1.526       .  S
C96         C634   1.488       .  S
C97         C890   1.471       .  S
C98         C653   1.487       .  S
C100        N101   1.367       .  A
C100        N105   1.364       .  A
C100        C618   1.488       .  S
N101        C102   1.362       .  A
C102        N103   1.343       .  A
C102        C701   1.486       .  S
N103        C104   1.345       .  A
C104        N105   1.357       .  A
C104        C669   1.456   1_545  S
C106        N107   1.360       .  A
C106        N111   1.362       .  A
C106        C589   1.480       .  S
N107        C108   1.360       .  A
C108        N109   1.352       .  A
C108        C605   1.462       .  S
N109        C110   1.350       .  A
C110        N111   1.356       .  A
C110        C685   1.484       .  S
Zn112       O116   1.971       .  S
Zn112       O117   2.033       .  S
Zn112       O121   2.026       .  S
Zn112       O128   2.059       .  S
Zn113       O116   1.962       .  S
Zn113       O118   2.082       .  S
Zn113       O120   2.015       .  S
Zn113       O124   1.996       .  S
Zn114       O116   1.960       .  S
Zn114       O119   1.997       .  S
Zn114       O122   2.061       .  S
Zn114       O125   1.995       .  S
Zn115       O116   1.978       .  S
Zn115       O123   2.040       .  S
Zn115       O126   2.025       .  S
Zn115       O127   2.052       .  S
O117        C129   1.275       .  A
O118        C130   1.279       .  A
O119        C131   1.271       .  A
O120        C129   1.275       .  A
O121        C131   1.279       .  A
O122        C130   1.277       .  A
O123        C132   1.276       .  A
O124        C133   1.272       .  A
O125        C132   1.272       .  A
O126        C133   1.278       .  A
O127        C134   1.274       .  A
O128        C134   1.276       .  A
C129        C538   1.487       .  S
C130        C925   1.515       .  S
C131        C573   1.488       .  S
C132        C554   1.478       .  S
C133        C602   1.484       .  S
C135        N136   1.365   1_556  A
C135        N140   1.362   1_556  A
C135        C522   1.485       .  S
N136        C137   1.357       .  A
C137        N138   1.347       .  A
C137        C714   1.466       .  S
N138        C139   1.349       .  A
C139        N140   1.358       .  A
C139        C570   1.464   1_655  S
C141        N142   1.366   1_545  A
C141        N146   1.372   1_655  A
C141        C493   1.523       .  S
N142        C143   1.362       .  A
C143        N144   1.365   1_655  A
C143        C474   1.508       .  S
N144        C145   1.369   1_565  A
C145        N146   1.373       .  A
C145        C509   1.531       .  S
Zn147       O151   1.952       .  S
Zn147       O152   2.063       .  S
Zn147       O156   1.969       .  S
Zn147       O163   1.984       .  S
Zn148       O151   1.953       .  S
Zn148       O153   1.972       .  S
Zn148       O155   2.047       .  S
Zn148       O159   1.971       .  S
Zn149       O151   1.983       .  S
Zn149       O154   2.062       .  S
Zn149       O157   2.025       .  S
Zn149       O160   2.084       .  S
Zn150       O151   1.975       .  S
Zn150       O158   2.064       .  S
Zn150       O161   2.049       .  S
Zn150       O162   2.021       .  S
O152        C164   1.274       .  A
O153        C165   1.268       .  A
O154        C166   1.279       .  A
O155        C164   1.272       .  A
O156        C166   1.271       .  A
O157        C165   1.278       .  A
O158        C167   1.278       .  A
O159        C168   1.269       .  A
O160        C167   1.278       .  A
O161        C168   1.278       .  A
O162        C169   1.276       .  A
O163        C169   1.271       .  A
C164        C279   1.486       .  S
C165        C461   1.458       .  S
C166        C586   1.479       .  S
C167        C506   1.524       .  S
C168        C765   1.477       .  S
C169        C442   1.482       .  S
C170        N171   1.363   1_554  A
C170        N175   1.362   1_554  A
C170        C557   1.480       .  S
N171        C172   1.358       .  A
C172        N173   1.347       .  A
C172        C429   1.477       .  S
N173        C174   1.349       .  A
C174        N175   1.357       .  A
C174        C458   1.457       .  S
C176        N177   1.361       .  A
C176        N181   1.370       .  A
C176        C541   1.490       .  S
N177        C178   1.353       .  A
C178        N179   1.344       .  A
C178        C397   1.456   1_455  S
N179        C180   1.346       .  A
C180        N181   1.365       .  A
C180        C413   1.478       .  S
Zn182       O186   1.982       .  S
Zn182       O187   2.077       .  S
Zn182       O191   2.047       .  S
Zn182       O198   2.031       .  S
Zn183       O186   1.971       .  S
Zn183       O188   2.029       .  S
Zn183       O190   2.069       .  S
Zn183       O194   2.059       .  S
Zn184       O186   1.956       .  S
Zn184       O189   1.980       .  S
Zn184       O192   1.986       .  S
Zn184       O195   2.062       .  S
Zn185       O186   1.952       .  S
Zn185       O193   2.053       .  S
Zn185       O196   1.990       .  S
Zn185       O197   1.971       .  S
O187        C199   1.277       .  A
O188        C200   1.278       .  A
O189        C201   1.270       .  A
O190        C199   1.279       .  A
O191        C201   1.278       .  A
O192        C200   1.270       .  A
O193        C202   1.273       .  A
O194        C203   1.280       .  A
O195        C202   1.274       .  A
O196        C203   1.273       .  A
O197        C204   1.269       .  A
O198        C204   1.278       .  A
C199        C490   1.523       .  S
C200        C378   1.475       .  S
C201        C525   1.476       .  S
C202        C275   1.487       .  S
C203        C621   1.491       .  S
C204        C394   1.466       .  S
C205        N206   1.364   1_554  A
C205        N210   1.364   1_554  A
C205        C797   1.482       .  S
N206        C207   1.360       .  A
C207        N208   1.347       .  A
C207        C362   1.466   1_455  S
N208        C209   1.344       .  A
C209        N210   1.358       .  A
C209        C346   1.480       .  S
Zn211       O215   1.952       .  S
Zn211       O216   2.059       .  S
Zn211       O220   2.000       .  S
Zn211       O227   2.022       .  S
Zn212       O215   1.900       .  S
Zn212       O217   1.928       .  S
Zn212       O219   1.935       .  S
Zn212       O223   1.938       .  S
Zn213       O215   1.962       .  S
Zn213       O218   2.020       .  S
Zn213       O221   2.062       .  S
Zn213       O224   1.997       .  S
Zn214       O215   1.949       .  S
Zn214       O222   2.005       .  S
Zn214       O225   2.050       .  S
Zn214       O226   2.004       .  S
O216        C228   1.280       .  A
O217        C229   1.263       .  A
O218        C230   1.273       .  A
O219        C228   1.260       .  A
O220        C230   1.273       .  A
O221        C229   1.277       .  A
O222        C231   1.272       .  A
O223        C232   1.263       .  A
O224        C231   1.273       .  A
O225        C232   1.276       .  A
O226        C233   1.272       .  A
O227        C233   1.276       .  A
C228        C349   1.489       .  S
C229        C426   1.491       .  S
C230        C410   1.487       .  S
C231        C298   1.490       .  S
C232        C314   1.478       .  S
C233        C333   1.478       .  S
Zn234       O238   1.982       .  S
Zn234       O239   2.031       .  S
Zn234       O243   2.039       .  S
Zn234       O250   2.058       .  S
Zn235       O238   1.964       .  S
Zn235       O240   2.072       .  S
Zn235       O242   1.997       .  S
Zn235       O246   2.016       .  S
Zn236       O238   1.969       .  S
Zn236       O241   2.013       .  S
Zn236       O244   2.084       .  S
Zn236       O247   2.019       .  S
Zn237       O238   1.973       .  S
Zn237       O245   2.021       .  S
Zn237       O248   2.031       .  S
Zn237       O249   2.049       .  S
O239        C251   1.279       .  A
O240        C252   1.278       .  A
O241        C253   1.274       .  A
O242        C251   1.271       .  A
O243        C253   1.277       .  A
O244        C252   1.280       .  A
O245        C254   1.278       .  A
O246        C255   1.275       .  A
O247        C254   1.274       .  A
O248        C255   1.275       .  A
O249        C256   1.274       .  A
O250        C256   1.275       .  A
C251        C365   1.494       .  S
C252        C477   1.524       .  S
C253        C733   1.479       .  S
C254        C282   1.493       .  S
C255        C861   1.485       .  S
C256        C277   1.492       .  S
C257        N258   1.364       .  A
C257        N262   1.360       .  A
C257        C637   1.488       .  S
N258        C259   1.365       .  A
C259        N260   1.351       .  A
C259        C285   1.471       .  S
N260        C261   1.346       .  A
C261        N262   1.353       .  A
C261        C301   1.464       .  S
C263        N264   1.367   1_554  A
C263        N268   1.368   1_554  A
C263        C650   1.486       .  S
N264        C265   1.360       .  A
C265        N266   1.342       .  A
C265        C381   1.460   1_565  S
N266        C267   1.344       .  A
C267        N268   1.361       .  A
C267        C317   1.493       .  S
C269        N270   1.369       .  A
C269        N274   1.364       .  A
C269        C813   1.494       .  S
N270        C271   1.359       .  A
C271        N272   1.345       .  A
C271        C330   1.473       .  S
N272        C273   1.346       .  A
C273        N274   1.357       .  A
C273        C445   1.458   1_565  S
C275        N276   1.365       .  A
C275        N280   1.366       .  A
N276        C277   1.365       .  A
C277        N278   1.364       .  A
N278        C279   1.363       .  A
C279        N280   1.365       .  A
C281        C282   1.409       .  A
C281        C286   1.402       .  A
C281        H288   1.084       .  S
C282        C283   1.422       .  A
C283        C284   1.404       .  A
C283        C290   1.508       .  S
C284        C285   1.400       .  A
C284        H289   1.085       .  S
C285        C286   1.412       .  A
C286        C287   1.510       .  S
C287        H291   1.111       .  S
C287        H292   1.110       .  S
C287        H293   1.107       .  S
C290        H294   1.110       .  S
C290        H295   1.110       .  S
C290        H296   1.111       .  S
C297        C298   1.412       .  A
C297        C302   1.400       .  A
C297        H304   1.083       .  S
C298        C299   1.423       .  A
C299        C300   1.403       .  A
C299        C306   1.510       .  S
C300        C301   1.399       .  A
C300        H305   1.085       .  S
C301        C302   1.404       .  A
C302        C303   1.506       .  S
C303        H307   1.111       .  S
C303        H308   1.108       .  S
C303        H309   1.110       .  S
C306        H310   1.110       .  S
C306        H311   1.110       .  S
C306        H312   1.111       .  S
C313        C314   1.410       .  A
C313        C318   1.404       .  A
C313        H320   1.084       .  S
C314        C315   1.407       .  A
C315        C316   1.398       .  A
C315        C322   1.509       .  S
C316        C317   1.416       .  A
C316        H321   1.083       .  S
C317        C318   1.415       .  A
C318        C319   1.507       .  S
C319        H323   1.111       .  S
C319        H324   1.107       .  S
C319        H325   1.110       .  S
C322        H326   1.110       .  S
C322        H327   1.110       .  S
C322        H328   1.111       .  S
C329        C330   1.405       .  A
C329        C334   1.401       .  A
C329        H336   1.085       .  S
C330        C331   1.415       .  A
C331        C332   1.405       .  A
C331        C338   1.508       .  S
C332        C333   1.406       .  A
C332        H337   1.085       .  S
C333        C334   1.411       .  A
C334        C335   1.508       .  S
C335        H339   1.111       .  S
C335        H340   1.109       .  S
C335        H341   1.111       .  S
C338        H342   1.105       .  S
C338        H343   1.110       .  S
C338        H344   1.110       .  S
C345        C346   1.397       .  A
C345        C350   1.402       .  A
C345        H352   1.084       .  S
C346        C347   1.421       .  A
C347        C348   1.400       .  A
C347        C354   1.510       .  S
C348        C349   1.400       .  A
C348        H353   1.084       .  S
C349        C350   1.430       .  A
C350        C351   1.512       .  S
C351        H355   1.111       .  S
C351        H356   1.110       .  S
C351        H357   1.110       .  S
C354        H358   1.110       .  S
C354        H359   1.109       .  S
C354        H360   1.111       .  S
C361        C362   1.396       .  A
C361        C366   1.404       .  A
C361        H368   1.085       .  S
C362        C363   1.411       .  A
C363        C364   1.400       .  A
C363        C370   1.509       .  S
C364        C365   1.408       .  A
C364        H369   1.083       .  S
C365        C366   1.427       .  A
C366        C367   1.509       .  S
C367        H371   1.111       .  S
C367        H372   1.110       .  S
C367        H373   1.110       .  S
C370        H374   1.110       .  S
C370        H375   1.108   1_655  S
C370        H376   1.110       .  S
C377        C378   1.403       .  A
C377        C382   1.399       .  A
C377        H384   1.084       .  S
C378        C379   1.416       .  A
C379        C380   1.405       .  A
C379        C386   1.508       .  S
C380        C381   1.402       .  A
C380        H385   1.084       .  S
C381        C382   1.410       .  A
C382        C383   1.508       .  S
C383        H387   1.111       .  S
C383        H388   1.110   1_545  S
C383        H389   1.110       .  S
C386        H390   1.111       .  S
C386        H391   1.109       .  S
C386        H392   1.111       .  S
C393        C394   1.404       .  A
C393        C398   1.400       .  A
C393        H400   1.084       .  S
C394        C395   1.412       .  A
C395        C396   1.399       .  A
C395        C402   1.508       .  S
C396        C397   1.401       .  A
C396        H401   1.085       .  S
C397        C398   1.408       .  A
C398        C399   1.508       .  S
C399        H403   1.111       .  S
C399        H404   1.110       .  S
C399        H405   1.109       .  S
C402        H406   1.110       .  S
C402        H407   1.110       .  S
C402        H408   1.111       .  S
C409        C410   1.403       .  A
C409        C414   1.400       .  A
C409        H416   1.084       .  S
C410        C411   1.421       .  A
C411        C412   1.408       .  A
C411        C418   1.508       .  S
C412        C413   1.402       .  A
C412        H417   1.084       .  S
C413        C414   1.416       .  A
C414        C415   1.510       .  S
C415        H419   1.111       .  S
C415        H420   1.107       .  S
C415        H421   1.110       .  S
C418        H422   1.110       .  S
C418        H423   1.111       .  S
C418        H424   1.111       .  S
C425        C426   1.415       .  A
C425        C430   1.398       .  A
C425        H432   1.083       .  S
C426        C427   1.414       .  A
C427        C428   1.405       .  A
C427        C434   1.507       .  S
C428        C429   1.409       .  A
C428        H433   1.084       .  S
C429        C430   1.407       .  A
C430        C431   1.509       .  S
C431        H435   1.111       .  S
C431        H436   1.111       .  S
C431        H437   1.110       .  S
C434        H438   1.110       .  S
C434        H439   1.110       .  S
C434        H440   1.111       .  S
C441        C442   1.409       .  A
C441        C446   1.401       .  A
C441        H448   1.084       .  S
C442        C443   1.419       .  A
C443        C444   1.400       .  A
C443        C450   1.509       .  S
C444        C445   1.399       .  A
C444        H449   1.085   1_545  S
C445        C446   1.405       .  A
C446        C447   1.506       .  S
C447        H451   1.110       .  S
C447        H452   1.110       .  S
C447        H453   1.110       .  S
C450        H454   1.111       .  S
C450        H455   1.110       .  S
C450        H456   1.111       .  S
C457        C458   1.398       .  A
C457        C462   1.398       .  A
C457        H464   1.085       .  S
C458        C459   1.413       .  A
C459        C460   1.401       .  A
C459        C466   1.508       .  S
C460        C461   1.399       .  A
C460        H465   1.084       .  S
C461        C462   1.411       .  A
C462        C463   1.509       .  S
C463        H467   1.111       .  S
C463        H468   1.111       .  S
C463        H469   1.110       .  S
C466        H470   1.111       .  S
C466        H471   1.110       .  S
C466        H472   1.111       .  S
C473        C474   1.405       .  A
C473        C478   1.419       .  A
C473        H480   1.086       .  S
C474        C475   1.415       .  A
C475        C476   1.417       .  A
C475        C482   1.505       .  S
C476        C477   1.412       .  A
C476        H481   1.086       .  S
C477        C478   1.427       .  A
C478        C479   1.507       .  S
C479        H483   1.111       .  S
C479        H484   1.110       .  S
C479        H485   1.110       .  S
C482        H486   1.106   1_655  S
C482        H487   1.110       .  S
C482        H488   1.111       .  S
C489        C490   1.409       .  A
C489        C494   1.415       .  A
C489        H496   1.084       .  S
C490        C491   1.425       .  A
C491        C492   1.421       .  A
C491        C498   1.507       .  S
C492        C493   1.411       .  A
C492        H497   1.085   1_655  S
C493        C494   1.426       .  A
C494        C495   1.509   1_545  S
C495        H499   1.111       .  S
C495        H500   1.109       .  S
C495        H501   1.110       .  S
C498        H502   1.110       .  S
C498        H503   1.110       .  S
C498        H504   1.111   1_655  S
C505        C506   1.408       .  A
C505        C510   1.416       .  A
C505        H512   1.083       .  S
C506        C507   1.424       .  A
C507        C508   1.422       .  A
C507        C514   1.507       .  S
C508        C509   1.415       .  A
C508        H513   1.082       .  S
C509        C510   1.428       .  A
C510        C511   1.507   1_545  S
C511        H515   1.111       .  S
C511        H516   1.108       .  S
C511        H517   1.110       .  S
C514        H518   1.110       .  S
C514        H519   1.111       .  S
C514        H520   1.111       .  S
C521        C522   1.404       .  A
C521        C526   1.401       .  A
C521        H528   1.084       .  S
C522        C523   1.419       .  A
C523        C524   1.406       .  A
C523        C530   1.508       .  S
C524        C525   1.403       .  A
C524        H529   1.084       .  S
C525        C526   1.414       .  A
C526        C527   1.510       .  S
C527        H531   1.111       .  S
C527        H532   1.108       .  S
C527        H533   1.110       .  S
C530        H534   1.111       .  S
C530        H535   1.109   1_655  S
C530        H536   1.111       .  S
C537        C538   1.402       .  A
C537        C542   1.405       .  A
C537        H544   1.084       .  S
C538        C539   1.418       .  A
C539        C540   1.407       .  A
C539        C546   1.508       .  S
C540        C541   1.404       .  A
C540        H545   1.084       .  S
C541        C542   1.421       .  A
C542        C543   1.509       .  S
C543        H547   1.111       .  S
C543        H548   1.110   1_455  S
C543        H549   1.110       .  S
C546        H550   1.110       .  S
C546        H551   1.110       .  S
C546        H552   1.111       .  S
C553        C554   1.403       .  A
C553        C558   1.404       .  A
C553        H560   1.085       .  S
C554        C555   1.415       .  A
C555        C556   1.404       .  A
C555        C562   1.508       .  S
C556        C557   1.403       .  A
C556        H561   1.085       .  S
C557        C558   1.415       .  A
C558        C559   1.508       .  S
C559        H563   1.111       .  S
C559        H564   1.109       .  S
C559        H565   1.111       .  S
C562        H566   1.110       .  S
C562        H567   1.111       .  S
C562        H568   1.111       .  S
C569        C570   1.399       .  A
C569        C574   1.405       .  A
C569        H576   1.085       .  S
C570        C571   1.409       .  A
C571        C572   1.397       .  A
C571        C578   1.508       .  S
C572        C573   1.406       .  A
C572        H577   1.084       .  S
C573        C574   1.424       .  A
C574        C575   1.509       .  S
C575        H579   1.111       .  S
C575        H580   1.111       .  S
C575        H581   1.110       .  S
C578        H582   1.110       .  S
C578        H583   1.109       .  S
C578        H584   1.108       .  S
C585        C586   1.403       .  A
C585        C590   1.395       .  A
C585        H592   1.084       .  S
C586        C587   1.411       .  A
C587        C588   1.413       .  A
C587        C594   1.504       .  S
C588        C589   1.409       .  A
C588        H593   1.083       .  S
C589        C590   1.413       .  A
C590        C591   1.511       .  S
C591        H595   1.111       .  S
C591        H596   1.108       .  S
C591        H597   1.111       .  S
C594        H598   1.110       .  S
C594        H599   1.110       .  S
C594        H600   1.110       .  S
C601        C602   1.408       .  A
C601        C606   1.401       .  A
C601        H608   1.083       .  S
C602        C603   1.421       .  A
C603        C604   1.401       .  A
C603        C610   1.510       .  S
C604        C605   1.398       .  A
C604        H609   1.084       .  S
C605        C606   1.408       .  A
C606        C607   1.509       .  S
C607        H611   1.111       .  S
C607        H612   1.109       .  S
C607        H613   1.111       .  S
C610        H614   1.111       .  S
C610        H615   1.110       .  S
C610        H616   1.111       .  S
C617        C618   1.407       .  A
C617        C622   1.408       .  A
C617        H624   1.084       .  S
C618        C619   1.415       .  A
C619        C620   1.403       .  A
C619        C626   1.508       .  S
C620        C621   1.408       .  A
C620        H625   1.084       .  S
C621        C622   1.417       .  A
C622        C623   1.507       .  S
C623        H627   1.111       .  S
C623        H628   1.110       .  S
C623        H629   1.110       .  S
C626        H630   1.110       .  S
C626        H631   1.109       .  S
C626        H632   1.111       .  S
C633        C634   1.404       .  A
C633        C638   1.395       .  A
C633        H640   1.085       .  S
C634        C635   1.413       .  A
C635        C636   1.416       .  A
C635        C642   1.504       .  S
C636        C637   1.411       .  A
C636        H641   1.084       .  S
C637        C638   1.417       .  A
C638        C639   1.512       .  S
C639        H643   1.111       .  S
C639        H644   1.110       .  S
C639        H645   1.109       .  S
C642        H646   1.110       .  S
C642        H647   1.110       .  S
C642        H648   1.111       .  S
C649        C650   1.406       .  A
C649        C654   1.410       .  A
C649        H656   1.084       .  S
C650        C651   1.414       .  A
C651        C652   1.405       .  A
C651        C658   1.508       .  S
C652        C653   1.405       .  A
C652        H657   1.084       .  S
C653        C654   1.417       .  A
C654        C655   1.507       .  S
C655        H659   1.111       .  S
C655        H660   1.110       .  S
C655        H661   1.110       .  S
C658        H662   1.106       .  S
C658        H663   1.110       .  S
C658        H664   1.110       .  S
C665        C666   1.402       .  A
C665        C670   1.400       .  A
C665        H672   1.084       .  S
C666        C667   1.413       .  A
C667        C668   1.401       .  A
C667        C674   1.507       .  S
C668        C669   1.401       .  A
C668        H673   1.085       .  S
C669        C670   1.409       .  A
C670        C671   1.507       .  S
C671        H675   1.111       .  S
C671        H676   1.110       .  S
C671        H677   1.110   1_565  S
C674        H678   1.110       .  S
C674        H679   1.110       .  S
C674        H680   1.109       .  S
C681        C682   1.415       .  A
C681        C686   1.403       .  A
C681        H688   1.083       .  S
C682        C683   1.416       .  A
C683        C684   1.404       .  A
C683        C690   1.508       .  S
C684        C685   1.408       .  A
C684        H689   1.084       .  S
C685        C686   1.410       .  A
C686        C687   1.509       .  S
C687        H691   1.111       .  S
C687        H692   1.109       .  S
C687        H693   1.111       .  S
C690        H694   1.110       .  S
C690        H695   1.110       .  S
C690        H696   1.111       .  S
C697        C698   1.397       .  A
C697        C702   1.403       .  A
C697        H704   1.085       .  S
C698        C699   1.414       .  A
C699        C700   1.403       .  A
C699        C706   1.508       .  S
C700        C701   1.403       .  A
C700        H705   1.084       .  S
C701        C702   1.426       .  A
C702        C703   1.511       .  S
C703        H707   1.111       .  S
C703        H708   1.110       .  S
C703        H709   1.109       .  S
C706        H710   1.109       .  S
C706        H711   1.110       .  S
C706        H712   1.111       .  S
C713        C714   1.397       .  A
C713        C718   1.403       .  A
C713        H720   1.085       .  S
C714        C715   1.408       .  A
C715        C716   1.402       .  A
C715        C722   1.508       .  S
C716        C717   1.409       .  A
C716        H721   1.084       .  S
C717        C718   1.424       .  A
C718        C719   1.509       .  S
C719        H723   1.111       .  S
C719        H724   1.110       .  S
C719        H725   1.110       .  S
C722        H726   1.111       .  S
C722        H727   1.109       .  S
C722        H728   1.111       .  S
C729        C730   1.406       .  A
C729        C734   1.404       .  A
C729        H736   1.084       .  S
C730        C731   1.419       .  A
C731        C732   1.408       .  A
C731        C738   1.507       .  S
C732        C733   1.402       .  A
C732        H737   1.084       .  S
C733        C734   1.413       .  A
C734        C735   1.508       .  S
C735        H739   1.111       .  S
C735        H740   1.111       .  S
C735        H741   1.110       .  S
C738        H742   1.110       .  S
C738        H743   1.110   1_655  S
C738        H744   1.111   1_655  S
C745        C746   1.412       .  A
C745        C750   1.405       .  A
C745        H752   1.084       .  S
C746        C747   1.409       .  A
C747        C748   1.399       .  A
C747        C754   1.509       .  S
C748        C749   1.414       .  A
C748        H753   1.083       .  S
C749        C750   1.412       .  A
C750        C751   1.507       .  S
C751        H755   1.111       .  S
C751        H756   1.110       .  S
C751        H757   1.110       .  S
C754        H758   1.110       .  S
C754        H759   1.111       .  S
C754        H760   1.111       .  S
C761        C762   1.401       .  A
C761        C766   1.399       .  A
C761        H768   1.084       .  S
C762        C763   1.418       .  A
C763        C764   1.407       .  A
C763        C770   1.508       .  S
C764        C765   1.403       .  A
C764        H769   1.084       .  S
C765        C766   1.416       .  A
C766        C767   1.510       .  S
C767        H771   1.111       .  S
C767        H772   1.109       .  S
C767        H773   1.110       .  S
C770        H774   1.110       .  S
C770        H775   1.109   1_545  S
C770        H776   1.111       .  S
C777        C778   1.405       .  A
C777        C782   1.399       .  A
C777        H784   1.085       .  S
C778        C779   1.412       .  A
C779        C780   1.404       .  A
C779        C786   1.507       .  S
C780        C781   1.405       .  A
C780        H785   1.084       .  S
C781        C782   1.412       .  A
C782        C783   1.509       .  S
C783        H787   1.111       .  S
C783        H788   1.110       .  S
C783        H789   1.109       .  S
C786        H790   1.110       .  S
C786        H791   1.110       .  S
C786        H792   1.111       .  S
C793        C794   1.405       .  A
C793        C798   1.408       .  A
C793        H800   1.084       .  S
C794        C795   1.419       .  A
C795        C796   1.402       .  A
C795        C802   1.511       .  S
C796        C797   1.402       .  A
C796        H801   1.084       .  S
C797        C798   1.415       .  A
C798        C799   1.507       .  S
C799        H803   1.111       .  S
C799        H804   1.110   1_455  S
C799        H805   1.110       .  S
C802        H806   1.110       .  S
C802        H807   1.108       .  S
C802        H808   1.110       .  S
C809        C810   1.403       .  A
C809        C814   1.407       .  A
C809        H816   1.084       .  S
C810        C811   1.420       .  A
C811        C812   1.402       .  A
C811        C818   1.511       .  S
C812        C813   1.405       .  A
C812        H817   1.084       .  S
C813        C814   1.422       .  A
C814        C815   1.508       .  S
C815        H819   1.111   1_565  S
C815        H820   1.110   1_565  S
C815        H821   1.110       .  S
C818        H822   1.110       .  S
C818        H823   1.108       .  S
C818        H824   1.110       .  S
C825        C826   1.400       .  A
C825        C830   1.401       .  A
C825        H832   1.084       .  S
C826        C827   1.411       .  A
C827        C828   1.400       .  A
C827        C834   1.508       .  S
C828        C829   1.400       .  A
C828        H833   1.084       .  S
C829        C830   1.412       .  A
C830        C831   1.508       .  S
C831        H835   1.111       .  S
C831        H836   1.110       .  S
C831        H837   1.110       .  S
C834        H838   1.110       .  S
C834        H839   1.111       .  S
C834        H840   1.111       .  S
C841        C842   1.403       .  A
C841        C846   1.398       .  A
C841        H848   1.084       .  S
C842        C843   1.419       .  A
C843        C844   1.401       .  A
C843        C850   1.509       .  S
C844        C845   1.398       .  A
C844        H849   1.085       .  S
C845        C846   1.408       .  A
C846        C847   1.508   1_565  S
C847        H851   1.111       .  S
C847        H852   1.110       .  S
C847        H853   1.110       .  S
C850        H854   1.109       .  S
C850        H855   1.110       .  S
C850        H856   1.111       .  S
C857        C858   1.406       .  A
C857        C862   1.405       .  A
C857        H864   1.084       .  S
C858        C859   1.422       .  A
C859        C860   1.406       .  A
C859        C866   1.508       .  S
C860        C861   1.402       .  A
C860        H865   1.084       .  S
C861        C862   1.417       .  A
C862        C863   1.508       .  S
C863        H867   1.111       .  S
C863        H868   1.111       .  S
C863        H869   1.110       .  S
C866        H870   1.110       .  S
C866        H871   1.110       .  S
C866        H872   1.111       .  S
C873        C874   1.401       .  A
C873        C878   1.405       .  A
C873        H880   1.084       .  S
C874        C875   1.414       .  A
C875        C876   1.402       .  A
C875        C882   1.510       .  S
C876        C877   1.406       .  A
C876        H881   1.084       .  S
C877        C878   1.419       .  A
C878        C879   1.508       .  S
C879        H883   1.111       .  S
C879        H884   1.111       .  S
C879        H885   1.110       .  S
C882        H886   1.110       .  S
C882        H887   1.108       .  S
C882        H888   1.111       .  S
C889        C890   1.406       .  A
C889        C894   1.401       .  A
C889        H896   1.084       .  S
C890        C891   1.413       .  A
C891        C892   1.400       .  A
C891        C898   1.508       .  S
C892        C893   1.401       .  A
C892        H897   1.085       .  S
C893        C894   1.407       .  A
C894        C895   1.507       .  S
C895        H899   1.111       .  S
C895        H900   1.110       .  S
C895        H901   1.110       .  S
C898        H902   1.110       .  S
C898        H903   1.110       .  S
C898        H904   1.111       .  S
C905        C906   1.410       .  A
C905        C910   1.418       .  A
C905        H912   1.083       .  S
C906        C907   1.424       .  A
C907        C908   1.422       .  A
C907        C914   1.506       .  S
C908        C909   1.411       .  A
C908        H913   1.084       .  S
C909        C910   1.426       .  A
C910        C911   1.508       .  S
C911        H915   1.111       .  S
C911        H916   1.110       .  S
C911        H917   1.110       .  S
C914        H918   1.111       .  S
C914        H919   1.107       .  S
C914        H920   1.111       .  S
C921        C922   1.409       .  A
C921        C926   1.418       .  A
C921        H928   1.084       .  S
C922        C923   1.421       .  A
C923        C924   1.417       .  A
C923        C930   1.507       .  S
C924        C925   1.409       .  A
C924        H929   1.084       .  S
C925        C926   1.421       .  A
C926        C927   1.506       .  S
C927        H931   1.111       .  S
C927        H932   1.110       .  S
C927        H933   1.110       .  S
C930        H934   1.110       .  S
C930        H935   1.109       .  S
C930        H936   1.111       .  S
C937        C938   1.412       .  A
C937        C942   1.419       .  A
C937        H944   1.086       .  S
C938        C939   1.424       .  A
C939        C940   1.419       .  A
C939        C946   1.507       .  S
C940        C941   1.410       .  A
C940        H945   1.086       .  S
C941        C942   1.421       .  A
C942        C943   1.506   1_455  S
C943        H947   1.111       .  S
C943        H948   1.110       .  S
C943        H949   1.106       .  S
C946        H950   1.110       .  S
C946        H951   1.110       .  S
C946        H952   1.111       .  S
