geometry optimzed in LAMMPS
_audit_creation_date              2020-11-30 
_audit_creation_method            'lammps2cif' 
_symmetry_space_group_name_H-M    'P1' 
_symmetry_Int_Tables_number       1 
_symmetry_cell_setting            triclinic 
loop_ 
_symmetry_equiv_pos_as_xyz 
  x,y,z 
_cell_length_a                    43.52614894 
_cell_length_b                    43.5781507143944 
_cell_length_c                    65.23386656358169 
_cell_angle_alpha                 89.95752116905841 
_cell_angle_beta                  90.00449273995467 
_cell_angle_gamma                 119.97168666426553 
loop_ 
_atom_site_label 
_atom_site_type_symbol 
_atom_site_fract_x 
_atom_site_fract_y 
_atom_site_fract_z 
_atom_site_charge 
O1          O  0.02969556  0.47215146  0.24984727    -0.71500
O2          O  0.02849883  0.05861250  0.24935734    -0.71800
O3          O  0.02941776  0.01593857  0.27870330    -0.71600
O4          O  0.02871996  0.01500800  0.22046211    -0.71600
O5          O  0.47104685  0.48680420  0.22077888    -0.71600
O6          O  0.47178027  0.48493078  0.27886204    -0.71600
O7          O  0.47099897  0.02938929  0.25049942    -0.71600
O8          O  0.47218240  0.44279816  0.24913858    -0.71700
V9          V  0.02800119  0.01485242  0.24958545     1.35200
V10         V  0.47258106  0.48655599  0.24981978     1.35200
C11         C  0.50117910  0.44266120  0.24947235     0.77700
C12         C  0.49958258  0.05884728  0.24997971     0.77700
C13         C  0.00071782  0.00029820  0.28871126     0.77600
C14         C  0.99977122  0.00095398  0.21066050     0.77600
O15         O  0.02973599  0.22182754  0.24988267    -0.71500
O16         O  0.02967515  0.30898492  0.24924633    -0.71800
O17         O  0.03038539  0.26632071  0.27868735    -0.71600
O18         O  0.02910294  0.26463074  0.22047640    -0.71600
O19         O  0.47159082  0.23706930  0.22090872    -0.71600
O20         O  0.47281599  0.23596999  0.27905343    -0.71600
O21         O  0.47217969  0.28014269  0.25043575    -0.71600
O22         O  0.47219928  0.19307072  0.24953829    -0.71700
V23         V  0.02862473  0.26487404  0.24958328     1.35200
V24         V  0.47332008  0.23715980  0.24997874     1.35200
C25         C  0.00097080  0.19252511  0.24969330     0.77700
C26         C  0.00086628  0.30946688  0.24980404     0.77700
C27         C  0.00178773  0.25109199  0.28879096     0.77600
C28         C  0.00011759  0.25078883  0.21072456     0.77600
O29         O  0.27856546  0.47118960  0.25155871    -0.71500
O30         O  0.27876977  0.05854738  0.24945992    -0.71800
O31         O  0.27845750  0.01636941  0.27949096    -0.71600
O32         O  0.27911524  0.01364367  0.22141126    -0.71600
O33         O  0.22175934  0.48759125  0.22121335    -0.71600
O34         O  0.22113516  0.48532721  0.27944112    -0.71600
O35         O  0.22127740  0.02987849  0.25078347    -0.71600
O36         O  0.22112605  0.44286854  0.24975288    -0.71700
V37         V  0.27759686  0.01434467  0.25044847     1.35200
V38         V  0.22246887  0.48698646  0.25033206     1.35200
C39         C  0.24966711  0.44199853  0.25072710     0.77700
C40         C  0.24999958  0.05913035  0.25004800     0.77700
C41         C  0.24984418  0.50122936  0.28940845     0.77600
C42         C  0.25064571  0.50060665  0.21137086     0.77600
O43         O  0.27638366  0.22010474  0.25031293    -0.71500
O44         O  0.27701123  0.30739440  0.25077177    -0.71800
O45         O  0.27629855  0.26332400  0.27960955    -0.71600
O46         O  0.27696233  0.26431914  0.22150056    -0.71600
O47         O  0.21939972  0.23548947  0.22124497    -0.71600
O48         O  0.21871047  0.23474717  0.27945818    -0.71600
O49         O  0.21948945  0.27913790  0.25045794    -0.71600
O50         O  0.21884030  0.19150878  0.25028710    -0.71700
V51         V  0.27551396  0.26318820  0.25054862     1.35200
V52         V  0.22019559  0.23579588  0.25036065     1.35200
C53         C  0.24758259  0.19087128  0.25025984     0.77700
C54         C  0.24845752  0.30830787  0.25067407     0.77700
C55         C  0.24742657  0.24892947  0.28945872     0.77600
C56         C  0.24833378  0.25006939  0.21143038     0.77600
O57         O  0.48555024  0.47327351  0.44531626    -0.71500
O58         O  0.48493679  0.47280023  0.38715224    -0.71800
O59         O  0.02876881  0.47282613  0.41617327    -0.71600
O60         O  0.44182972  0.47332090  0.41631828    -0.71600
O61         O  0.47081426  0.03046837  0.41551928    -0.71600
O62         O  0.05771834  0.03005406  0.41667914    -0.71600
O63         O  0.01527604  0.03001262  0.38699381    -0.71600
O64         O  0.01360842  0.03048877  0.44515877    -0.71700
V65         V  0.48583707  0.47416542  0.41623227     1.35200
V66         V  0.01373725  0.02913908  0.41608161     1.35200
C67         C  0.99961304  0.00184824  0.45521623     0.77700
C68         C  0.00041447  0.00116805  0.37716827     0.77700
C69         C  0.05813498  0.00125961  0.41659385     0.77600
C70         C  0.44141770  0.00184062  0.41586961     0.77600
O71         O  0.01095208  0.27592769  0.44553800    -0.71500
O72         O  0.01607550  0.27697948  0.38738852    -0.71800
O73         O  0.46979799  0.27639792  0.41495289    -0.71600
O74         O  0.05698664  0.27638205  0.41801634    -0.71600
O75         O  0.02831106  0.21902673  0.41582658    -0.71600
O76         O  0.44120518  0.21899238  0.41643873    -0.71600
O77         O  0.48445127  0.21956585  0.38706149    -0.71600
O78         O  0.48507094  0.21854300  0.44521556    -0.71700
V79         V  0.01290499  0.27535404  0.41645922     1.35200
V80         V  0.48531139  0.22013972  0.41614239     1.35200
C81         C  0.99780645  0.24703850  0.45533772     0.77700
C82         C  0.00055438  0.24843266  0.37728841     0.77700
C83         C  0.44051116  0.24760761  0.41549482     0.77600
C84         C  0.05754810  0.24766748  0.41719423     0.77600
O85         O  0.27867058  0.47290238  0.41638843    -0.71500
O86         O  0.19199840  0.47380913  0.41752981    -0.71800
O87         O  0.23421447  0.47312048  0.38791120    -0.71600
O88         O  0.23617088  0.47354948  0.44604136    -0.71600
O89         O  0.26426842  0.03087759  0.44584016    -0.71600
O90         O  0.26499076  0.03044372  0.38765725    -0.71600
O91         O  0.22118619  0.03113644  0.41647629    -0.71600
O92         O  0.30787145  0.03014082  0.41702076    -0.71700
V93         V  0.23586094  0.47446210  0.41697098     1.35200
V94         V  0.26400292  0.02954920  0.41675314     1.35200
C95         C  0.30809645  0.00124685  0.41646399     0.77700
C96         C  0.19175202  0.00256276  0.41710223     0.77700
C97         C  0.24925143  0.00162689  0.37783255     0.77600
C98         C  0.25038806  0.00221584  0.45587542     0.77600
O99         O  0.27813925  0.21854399  0.41584531    -0.71500
O100        O  0.19047111  0.21761929  0.41761363    -0.71800
O101        O  0.23273831  0.21812108  0.38769488    -0.71600
O102        O  0.23553806  0.21793384  0.44587341    -0.71600
O103        O  0.26315934  0.27537997  0.44591316    -0.71600
O104        O  0.26228399  0.27566960  0.38778115    -0.71600
O105        O  0.21888021  0.27511266  0.41727678    -0.71600
O106        O  0.30645873  0.27600264  0.41639475    -0.71700
V107        V  0.23480594  0.21915532  0.41677238     1.35200
V108        V  0.26211703  0.27441313  0.41684428     1.35200
C109        C  0.30732468  0.24745987  0.41582097     0.77700
C110        C  0.18970951  0.24624267  0.41758211     0.77700
C111        C  0.24717327  0.24695845  0.37784064     0.77600
C112        C  0.24955940  0.24664261  0.45586268     0.77600
O113        O  0.02673585  0.05830940  0.08163279    -0.71500
O114        O  0.02669701  0.47102776  0.08369442    -0.71800
O115        O  0.02656888  0.01282123  0.05368589    -0.71600
O116        O  0.02759891  0.01675804  0.11174428    -0.71600
O117        O  0.46993244  0.48570304  0.11216771    -0.71600
O118        O  0.46879255  0.48661513  0.05394622    -0.71600
O119        O  0.46919380  0.44248048  0.08264587    -0.71600
O120        O  0.46928770  0.02943718  0.08341417    -0.71700
V121        V  0.02592162  0.01430096  0.08271326     1.35200
V122        V  0.47042056  0.48664020  0.08305917     1.35200
C123        C  0.99789940  0.05875421  0.08245027     0.77700
C124        C  0.99788040  0.44179058  0.08325156     0.77700
C125        C  0.99767416  0.99929049  0.04390243     0.77600
C126        C  0.99909164  0.00152599  0.12191439     0.77600
O127        O  0.02756296  0.30857401  0.08271619    -0.71500
O128        O  0.02731103  0.22138202  0.08254989    -0.71800
O129        O  0.02672587  0.26464504  0.05356970    -0.71600
O130        O  0.02810245  0.26512072  0.11172375    -0.71600
O131        O  0.47057491  0.23632483  0.11218585    -0.71600
O132        O  0.46917653  0.23651704  0.05398254    -0.71600
O133        O  0.46978523  0.19271600  0.08282926    -0.71600
O134        O  0.47004629  0.28004307  0.08336197    -0.71700
V135        V  0.02629612  0.26438943  0.08264850     1.35200
V136        V  0.47099819  0.23693888  0.08308222     1.35200
C137        C  0.49887875  0.30927793  0.08311014     0.77700
C138        C  0.49856036  0.19212291  0.08260552     0.77700
C139        C  0.49774109  0.25051297  0.04382525     0.77600
C140        C  0.99958390  0.25073254  0.12192077     0.77600
O141        O  0.22171269  0.48780505  0.05452996    -0.71500
O142        O  0.22173314  0.48589435  0.11265343    -0.71800
O143        O  0.22208275  0.03031108  0.08407097    -0.71600
O144        O  0.22154905  0.44305589  0.08295259    -0.71600
O145        O  0.27907381  0.47150280  0.08379516    -0.71600
O146        O  0.27959620  0.05903127  0.08331902    -0.71600
O147        O  0.27948640  0.01556052  0.11263481    -0.71600
O148        O  0.27957329  0.01506506  0.05438316    -0.71700
V149        V  0.22285312  0.48726333  0.08358281     1.35200
V150        V  0.27842891  0.01479868  0.08351276     1.35200
C151        C  0.25076489  0.00179608  0.04447688     0.77700
C152        C  0.25064932  0.00076265  0.12255041     0.77700
C153        C  0.25079520  0.05958400  0.08370866     0.77600
C154        C  0.25021311  0.44230339  0.08330258     0.77600
O155        O  0.27921853  0.30888567  0.08357288    -0.71500
O156        O  0.27948942  0.22200898  0.08443195    -0.71800
O157        O  0.27986849  0.26491924  0.05485037    -0.71600
O158        O  0.27854564  0.26570376  0.11308762    -0.71600
O159        O  0.22104174  0.23494809  0.11261370    -0.71600
O160        O  0.22230587  0.23826511  0.05453874    -0.71600
O161        O  0.22203028  0.19309871  0.08280081    -0.71600
O162        O  0.22167671  0.28018541  0.08428755    -0.71700
V163        V  0.27817088  0.26483822  0.08397362     1.35200
V164        V  0.22286496  0.23715576  0.08357357     1.35200
C165        C  0.25048023  0.30947118  0.08396592     0.77700
C166        C  0.25089102  0.19268245  0.08358818     0.77700
C167        C  0.25123519  0.25187402  0.04478558     0.77600
C168        C  0.24952252  0.25003976  0.12279855     0.77600
O169        O  0.03081101  0.05903589  0.91723893    -0.71500
O170        O  0.44306785  0.47239040  0.91592369    -0.71800
O171        O  0.48593706  0.01423872  0.94562898    -0.71600
O172        O  0.48786797  0.01679429  0.88749913    -0.71600
O173        O  0.01501404  0.48694939  0.88729963    -0.71600
O174        O  0.01570316  0.48700394  0.94549640    -0.71600
O175        O  0.47177551  0.44358805  0.91656239    -0.71600
O176        O  0.05937578  0.03010647  0.91624048    -0.71700
V177        V  0.48758976  0.01505617  0.91656829     1.35200
V178        V  0.01485312  0.48755571  0.91640559     1.35200
C179        C  0.06009065  0.05944943  0.91684303     0.77700
C180        C  0.44248259  0.44307817  0.91628138     0.77700
C181        C  0.00066970  0.00011098  0.95549022     0.77600
C182        C  0.00142546  0.00172842  0.87742542     0.77600
O183        O  0.05744868  0.27876592  0.91629094    -0.71500
O184        O  0.47042613  0.19155598  0.91711473    -0.71800
O185        O  0.01379056  0.23417186  0.88758610    -0.71600
O186        O  0.01435494  0.23640448  0.94574841    -0.71600
O187        O  0.48313642  0.26273878  0.94520661    -0.71600
O188        O  0.48649696  0.26436873  0.88704498    -0.71600
O189        O  0.44150124  0.22007708  0.91536677    -0.71600
O190        O  0.02849737  0.30732944  0.91688594    -0.71700
V191        V  0.01341044  0.23573752  0.91666810     1.35200
V192        V  0.48550115  0.26311918  0.91613109     1.35200
C193        C  0.05790143  0.30798887  0.91671226     0.77700
C194        C  0.44105657  0.19086629  0.91622059     0.77700
C195        C  0.00031172  0.24917179  0.87734829     0.77600
C196        C  0.99859521  0.24969210  0.95536937     0.77600
O197        O  0.30689223  0.02946933  0.91651517    -0.71500
O198        O  0.21964870  0.44239646  0.91780275    -0.71800
O199        O  0.26271409  0.48505596  0.88815091    -0.71600
O200        O  0.26418073  0.48731719  0.94626750    -0.71600
O201        O  0.23398733  0.01431671  0.94599762    -0.71600
O202        O  0.23483568  0.01437229  0.88775272    -0.71600
O203        O  0.19075288  0.47099750  0.91684694    -0.71600
O204        O  0.27793414  0.05803259  0.91695737    -0.71700
V205        V  0.26268841  0.48659341  0.91721033     1.35200
V206        V  0.23498440  0.01384124  0.91687509     1.35200
C207        C  0.30731120  0.05869682  0.91663564     0.77700
C208        C  0.19026017  0.44175722  0.91735390     0.77700
C209        C  0.24893980  0.99954455  0.87795484     0.77600
C210        C  0.24956259  0.00119231  0.95600470     0.77600
O211        O  0.27956531  0.30976908  0.91767276    -0.71500
O212        O  0.19293368  0.22226738  0.91699013    -0.71800
O213        O  0.23577317  0.26523291  0.94645108    -0.71600
O214        O  0.23669941  0.26666657  0.88823817    -0.71600
O215        O  0.26486787  0.23732246  0.88811345    -0.71600
O216        O  0.26631742  0.23824655  0.94627648    -0.71600
O217        O  0.22205231  0.19387954  0.91757489    -0.71600
O218        O  0.30879813  0.28149937  0.91683000    -0.71700
V219        V  0.23680803  0.26543377  0.91734103     1.35200
V220        V  0.26492146  0.23825774  0.91720204     1.35200
C221        C  0.30902674  0.31063792  0.91721660     0.77700
C222        C  0.19259325  0.19309512  0.91726553     0.77700
C223        C  0.25123902  0.25182576  0.95630361     0.77600
C224        C  0.25082418  0.25210875  0.87820245     0.77600
O225        O  0.01557165  0.02971806  0.55388745    -0.71500
O226        O  0.01378664  0.03007481  0.61208378    -0.71800
O227        O  0.05830379  0.02992035  0.58362267    -0.71600
O228        O  0.47130093  0.03000730  0.58235357    -0.71600
O229        O  0.44251054  0.47235987  0.58326702    -0.71600
O230        O  0.02968024  0.47224589  0.58286988    -0.71600
O231        O  0.48652756  0.47232119  0.61216379    -0.71600
O232        O  0.48565201  0.47216239  0.55398916    -0.71700
V233        V  0.01420825  0.02881331  0.58298742     1.35200
V234        V  0.48663719  0.47337157  0.58307017     1.35200
C235        C  0.00045747  0.00091649  0.54399637     0.77700
C236        C  0.00008286  0.00136925  0.62208549     0.77700
C237        C  0.05892921  0.00123790  0.58335985     0.77600
C238        C  0.44198500  0.00135578  0.58276936     0.77600
O239        O  0.44107943  0.21693916  0.58340786    -0.71500
O240        O  0.02824805  0.21718907  0.58260968    -0.71800
O241        O  0.48528187  0.21673948  0.61210044    -0.71600
O242        O  0.48436277  0.21760073  0.55386822    -0.71600
O243        O  0.01247372  0.27508139  0.55414927    -0.71600
O244        O  0.01410612  0.27421796  0.61226636    -0.71600
O245        O  0.05698761  0.27465615  0.58258191    -0.71600
O246        O  0.46961598  0.27439868  0.58385133    -0.71700
V247        V  0.48527482  0.21823660  0.58298944     1.40000
V248        V  0.01275582  0.27347940  0.58320717     1.35200
C249        C  0.44037183  0.24557374  0.58378029     0.77700
C250        C  0.05752559  0.24588593  0.58254809     0.77700
C251        C  0.00007805  0.24538449  0.62213708     0.77600
C252        C  0.99815941  0.24652025  0.54405770     0.77600
O253        O  0.19218415  0.47136933  0.58446402    -0.71500
O254        O  0.27934816  0.47159710  0.58285245    -0.71800
O255        O  0.23706497  0.47133261  0.61276948    -0.71600
O256        O  0.23465435  0.47173271  0.55460833    -0.71600
O257        O  0.26455770  0.02946918  0.55460236    -0.71600
O258        O  0.26437451  0.02929327  0.61278188    -0.71600
O259        O  0.30812747  0.02941323  0.58368224    -0.71600
O260        O  0.22079155  0.02922125  0.58366085    -0.71700
V261        V  0.23635566  0.47262544  0.58368362     1.35200
V262        V  0.26391857  0.02825330  0.58368897     1.35200
C263        C  0.19154218  0.00041426  0.58406167     0.77700
C264        C  0.30866245  0.00066023  0.58313488     0.77700
C265        C  0.25098579  0.00053346  0.62270404     0.77600
C266        C  0.24946314  0.00076552  0.54463092     0.77600
O267        O  0.26432631  0.27446938  0.55449732    -0.71500
O268        O  0.26260177  0.27546936  0.61265733    -0.71800
O269        O  0.30709133  0.27499349  0.58426027    -0.71600
O270        O  0.22008345  0.27505292  0.58283445    -0.71600
O271        O  0.19124332  0.21762784  0.58411781    -0.71600
O272        O  0.27845096  0.21753658  0.58370596    -0.71600
O273        O  0.23550944  0.21798571  0.61302239    -0.71600
O274        O  0.23426899  0.21702921  0.55481322    -0.71700
V275        V  0.26298897  0.27387287  0.58357718     1.35200
V276        V  0.23539240  0.21863670  0.58391244     1.35200
C277        C  0.24931230  0.24558967  0.54468505     0.77700
C278        C  0.24905665  0.24689530  0.62277486     0.77700
C279        C  0.30772692  0.24631382  0.58402636     0.77600
C280        C  0.19077050  0.24640924  0.58333659     0.77600
O281        O  0.47029327  0.44484258  0.75004268    -0.71500
O282        O  0.05778397  0.03143137  0.74924915    -0.71800
O283        O  0.01444778  0.48877981  0.77869321    -0.71600
O284        O  0.01326289  0.48727452  0.72053435    -0.71600
O285        O  0.48680983  0.01848351  0.72047631    -0.71600
O286        O  0.48464084  0.01632686  0.77867944    -0.71600
O287        O  0.02943907  0.06057964  0.75025565    -0.71600
O288        O  0.44172951  0.47376493  0.74881550    -0.71700
V289        V  0.01341203  0.48869236  0.74961864     1.35200
V290        V  0.48617491  0.01673310  0.74957544     1.35200
C291        C  0.44104618  0.44440058  0.74938838     0.77700
C292        C  0.05862555  0.06085349  0.74986410     0.77700
C293        C  0.99955033  0.00246701  0.78864155     0.77600
C294        C  0.00007537  0.00296544  0.71058346     0.77600
O295        O  0.44511043  0.21832875  0.74861016    -0.71500
O296        O  0.03192640  0.30545371  0.75002735    -0.71800
O297        O  0.49016618  0.26294208  0.72026784    -0.71600
O298        O  0.48721311  0.26100358  0.77841233    -0.71600
O299        O  0.01843276  0.23477269  0.77877879    -0.71600
O300        O  0.01628229  0.23151015  0.72060847    -0.71600
O301        O  0.06102307  0.27705738  0.74887404    -0.71600
O302        O  0.47388627  0.18967703  0.75055635    -0.71700
V303        V  0.48913861  0.26134838  0.74933800     1.35200
V304        V  0.01690365  0.23382600  0.74969184     1.35200
C305        C  0.44455793  0.18907611  0.74962574     0.77700
C306        C  0.06133003  0.30626126  0.74941487     0.77700
C307        C  0.00329206  0.24712725  0.71055505     0.77600
C308        C  0.00271985  0.24795432  0.78856589     0.77600
O309        O  0.19401073  0.46901088  0.74941543    -0.71500
O310        O  0.28105307  0.05655710  0.75075154    -0.71800
O311        O  0.23889242  0.01408582  0.72104715    -0.71600
O312        O  0.23628973  0.01185138  0.77910961    -0.71600
O313        O  0.26760385  0.48594026  0.77944667    -0.71600
O314        O  0.26515898  0.48281985  0.72118348    -0.71600
O315        O  0.30999514  0.02801327  0.74946226    -0.71600
O316        O  0.22321733  0.44077970  0.75118852    -0.71700
V317        V  0.23810844  0.01228094  0.75007364     1.35200
V318        V  0.26593584  0.48494491  0.75031247     1.35200
C319        C  0.19377863  0.43985608  0.75027322     0.77700
C320        C  0.31043692  0.05722836  0.75005684     0.77700
C321        C  0.25194668  0.49835839  0.71121771     0.77600
C322        C  0.25189728  0.49913711  0.78926128     0.77600
O323        O  0.23654739  0.26531145  0.77937848    -0.71500
O324        O  0.23701138  0.26571876  0.72114282    -0.71800
O325        O  0.19332023  0.22181418  0.75015960    -0.71600
O326        O  0.28004137  0.30917560  0.75032577    -0.71600
O327        O  0.30916452  0.28078847  0.74957113    -0.71600
O328        O  0.22226618  0.19325842  0.75107026    -0.71600
O329        O  0.26447460  0.23561066  0.72124045    -0.71600
O330        O  0.26681091  0.23808086  0.77938790    -0.71700
V331        V  0.23727416  0.26493073  0.75025920     1.35200
V332        V  0.26516537  0.23752518  0.75031469     1.35200
C333        C  0.25178312  0.25178025  0.78935710     0.77700
C334        C  0.25053053  0.25041116  0.71126991     0.77700
C335        C  0.19288311  0.19258388  0.75068101     0.77600
C336        C  0.30946594  0.30997953  0.74985206     0.77600
C337        C  0.37831583  0.15548680  0.74816138    -0.21100
C338        C  0.41038978  0.15519365  0.74973289    -0.09100
C339        C  0.40919700  0.12239544  0.75141399     0.29700
C340        C  0.37664064  0.09082282  0.75148695    -0.21100
C341        C  0.34457185  0.09112265  0.74995129    -0.09100
C342        C  0.34575202  0.12390572  0.74826886     0.29700
F343        F  0.31556156  0.12561069  0.74654523    -0.19700
H344        H  0.37835189  0.18027777  0.74680664     0.18100
H345        H  0.37660045  0.06602758  0.75283451     0.18100
F346        F  0.43937112  0.12063877  0.75305304    -0.19600
C347        C  0.12749764  0.34105912  0.75174327    -0.21100
C348        C  0.09513956  0.34049343  0.74944683    -0.09100
C349        C  0.09556204  0.37290262  0.74736350     0.29700
C350        C  0.12765009  0.40496653  0.74770475    -0.21100
C351        C  0.16000963  0.40555895  0.75008872    -0.09100
C352        C  0.15959510  0.37313011  0.75209965     0.29700
F353        F  0.19010284  0.37221571  0.75452332    -0.19700
H354        H  0.12801256  0.31658863  0.75342004     0.18100
H355        H  0.12710724  0.42941931  0.74601491     0.18100
F356        F  0.06506217  0.37378399  0.74480325    -0.19600
C357        C  0.40761350  0.37836010  0.75142908    -0.21100
C358        C  0.40714405  0.41024138  0.74937400    -0.09100
C359        C  0.37422609  0.40879708  0.74739704     0.29700
C360        C  0.34270006  0.37614422  0.74756128    -0.21100
C361        C  0.34321595  0.34427332  0.74963991    -0.09100
C362        C  0.37613620  0.34575374  0.75157423     0.29700
F363        F  0.37808207  0.31580573  0.75383116    -0.19700
H364        H  0.43249677  0.37857510  0.75303302     0.18100
H365        H  0.31777601  0.37585813  0.74598473     0.18100
F366        F  0.37233586  0.43879185  0.74521683    -0.19600
C367        C  0.12495259  0.09418576  0.75107044    -0.21100
C368        C  0.09289688  0.09462551  0.75017566    -0.09100
C369        C  0.09413623  0.12753241  0.74963455     0.29700
C370        C  0.12669150  0.15906032  0.74988724    -0.21100
C371        C  0.15875502  0.15866062  0.75070543    -0.09100
C372        C  0.15755232  0.12576308  0.75136047     0.29700
F373        F  0.18774842  0.12392147  0.75226360    -0.19700
H374        H  0.12486264  0.06929726  0.75157468     0.18100
H375        H  0.12671654  0.18391562  0.74937007     0.18100
F376        F  0.06398662  0.12945538  0.74873829    -0.19600
C377        C  0.25065196  0.27637357  0.65583077    -0.21100
C378        C  0.24907540  0.24741510  0.64541831    -0.09100
C379        C  0.24783892  0.21941586  0.65684783     0.29700
C380        C  0.24869443  0.22078119  0.67826488    -0.21100
C381        C  0.24991600  0.24957667  0.68865641    -0.09100
C382        C  0.25065837  0.27732896  0.67725121     0.29700
F383        F  0.25231600  0.30580598  0.68677320    -0.19700
H384        H  0.25155478  0.29819649  0.64736288     0.18100
H385        H  0.24799155  0.19907326  0.68675947     0.18100
F386        F  0.24662707  0.19111083  0.64736569    -0.19600
C387        C  0.25636113  0.02899013  0.67813205    -0.21100
C388        C  0.25200111  0.49863803  0.68863850    -0.09100
C389        C  0.24781083  0.46930742  0.67739573     0.29700
C390        C  0.24716398  0.46983431  0.65597067    -0.21100
C391        C  0.25161585  0.00036051  0.64536296    -0.09100
C392        C  0.25646816  0.02992331  0.65671932     0.29700
F393        F  0.26065445  0.05949047  0.64720326    -0.19700
H394        H  0.25985806  0.05190838  0.68658033     0.18100
H395        H  0.24361681  0.44681491  0.64762466     0.18100
F396        F  0.24329330  0.43976787  0.68710412    -0.19600
C397        C  0.40628860  0.27768443  0.58329534    -0.21100
C398        C  0.40630007  0.24547211  0.58402379    -0.09100
C399        C  0.37358700  0.21356746  0.58483991     0.29700
C400        C  0.34176816  0.21412495  0.58486301    -0.21100
C401        C  0.34176726  0.24634704  0.58408952    -0.09100
C402        C  0.37448277  0.27824155  0.58330963     0.29700
F403        F  0.37593559  0.31006257  0.58242504    -0.19700
H404        H  0.43100996  0.30264254  0.58261725     0.18100
H405        H  0.31703614  0.18917127  0.58550070     0.18100
F406        F  0.37215250  0.18174857  0.58565136    -0.19600
C407        C  0.12369525  0.27784302  0.58078149    -0.21100
C408        C  0.09149479  0.24579718  0.58257401    -0.09100
C409        C  0.09228375  0.21399779  0.58457725     0.29700
C410        C  0.12460893  0.21448330  0.58477602    -0.21100
C411        C  0.15681571  0.24652697  0.58301596    -0.09100
C412        C  0.15603119  0.27832727  0.58097335     0.29700
F413        F  0.18640203  0.30997277  0.57908846    -0.19700
H414        H  0.12392275  0.30270039  0.57919412     0.18100
H415        H  0.12436325  0.18962279  0.58640388     0.18100
F416        F  0.06192772  0.18236250  0.58655217    -0.19600
C417        C  0.51146697  0.27712833  0.65554574    -0.21100
C418        C  0.00108405  0.24544477  0.64482117    -0.09100
C419        C  0.99205880  0.21438000  0.65601500     0.29700
C420        C  0.99357372  0.21527396  0.67744021    -0.21100
C421        C  0.00323764  0.24680311  0.68802733    -0.09100
C422        C  0.51225466  0.27778369  0.67694801     0.29700
F423        F  0.52263849  0.30886494  0.68682259    -0.19700
H424        H  0.51872647  0.30145270  0.64736768     0.18100
H425        H  0.98646556  0.19114134  0.68580525     0.18100
F426        F  0.98197521  0.18319977  0.64634136    -0.19600
C427        C  0.37489661  0.03286393  0.58272483    -0.21100
C428        C  0.34265629  0.00062568  0.58284240    -0.09100
C429        C  0.34346296  0.46838834  0.58253023     0.29700
C430        C  0.37583277  0.46896522  0.58244684    -0.21100
C431        C  0.40802279  0.00145338  0.58265038    -0.09100
C432        C  0.40725446  0.03339964  0.58260804     0.29700
F433        F  0.43766388  0.06524888  0.58253332    -0.19700
H434        H  0.37514791  0.05784404  0.58275231     0.18100
H435        H  0.37559933  0.44399533  0.58230355     0.18100
F436        F  0.31308330  0.43651702  0.58241172    -0.19600
C437        C  0.09291706  0.46870255  0.58329982    -0.21100
C438        C  0.09296493  0.00125465  0.58360131    -0.09100
C439        C  0.12569178  0.03314868  0.58431566     0.29700
C440        C  0.15748754  0.03256793  0.58451353    -0.21100
C441        C  0.15747790  0.00033534  0.58402336    -0.09100
C442        C  0.12469890  0.46807907  0.58353234     0.29700
F443        F  0.12320011  0.43621546  0.58309179    -0.19700
H444        H  0.06816088  0.44375545  0.58283985     0.18100
H445        H  0.18222175  0.05752946  0.58505097     0.18100
F446        F  0.12717178  0.06500006  0.58482305    -0.19600
C447        C  0.99704562  0.47310684  0.67743043    -0.21100
C448        C  0.00001158  0.00274972  0.68798745    -0.09100
C449        C  0.50328072  0.03178499  0.67676645     0.29700
C450        C  0.50360344  0.03126498  0.65533923    -0.21100
C451        C  0.99989702  0.00153215  0.64474468    -0.09100
C452        C  0.99651383  0.47217328  0.65601094     0.29700
F453        F  0.99336037  0.44310752  0.64641134    -0.19700
H454        H  0.99460156  0.45053449  0.68582255     0.18100
H455        H  0.50643905  0.05405373  0.64701776     0.18100
F456        F  0.50710098  0.06102488  0.68648785    -0.19600
C457        C  0.26683712  0.23574954  0.84478096    -0.21100
C458        C  0.25104118  0.25229519  0.85547532    -0.09100
C459        C  0.23569417  0.26880968  0.84420252     0.29700
C460        C  0.23613780  0.26854158  0.82277828    -0.21100
C461        C  0.25186662  0.25193270  0.81208535    -0.09100
C462        C  0.26731484  0.23551076  0.82336189     0.29700
F463        F  0.28277871  0.21902312  0.81379433    -0.19700
H464        H  0.27888085  0.22283704  0.85300842     0.18100
H465        H  0.22407950  0.28143166  0.81454448     0.18100
F466        F  0.22020556  0.28525666  0.85378268    -0.19600
C467        C  0.27051773  0.98831433  0.84487838    -0.21100
C468        C  0.24954122  0.99950795  0.85525648    -0.09100
C469        C  0.22872446  0.50996025  0.84375681     0.29700
C470        C  0.22983565  0.50979176  0.82234675    -0.21100
C471        C  0.25148655  0.49940856  0.81197423    -0.09100
C472        C  0.27166233  0.98818488  0.82347196     0.29700
F473        F  0.29271958  0.97760939  0.81418154    -0.19700
H474        H  0.28638340  0.97980649  0.85336943     0.18100
H475        H  0.21344447  0.51761214  0.81386887     0.18100
F476        F  0.20703577  0.51973731  0.85305229    -0.19600
C477        C  0.37353035  0.09249513  0.91760267    -0.21100
C478        C  0.34136571  0.09265235  0.91643991    -0.09100
C479        C  0.34234499  0.12538995  0.91511654     0.29700
C480        C  0.37481272  0.15706065  0.91500904    -0.21100
C481        C  0.40698277  0.15690619  0.91622638    -0.09100
C482        C  0.40599110  0.12416045  0.91751981     0.29700
F483        F  0.43627868  0.12254243  0.91876927    -0.19700
H484        H  0.37364403  0.06774644  0.91865705     0.18100
H485        H  0.37469640  0.18180929  0.91397389     0.18100
F486        F  0.31204456  0.12698480  0.91383655    -0.19600
C487        C  0.09172694  0.37419700  0.91576968    -0.21100
C488        C  0.09187627  0.34208121  0.91699259    -0.09100
C489        C  0.12467741  0.34310613  0.91848046     0.29700
C490        C  0.15639504  0.37554611  0.91864077    -0.21100
C491        C  0.15625683  0.40766550  0.91734021    -0.09100
C492        C  0.12344224  0.40663557  0.91591704     0.29700
F493        F  0.12180690  0.43686963  0.91454775    -0.19700
H494        H  0.06693870  0.37428358  0.91459893     0.18100
H495        H  0.18118084  0.37545262  0.91979509     0.18100
F496        F  0.12628943  0.31286207  0.91988627    -0.19600
C497        C  0.01943514  0.23503863  0.84424640    -0.21100
C498        C  0.00077942  0.24890985  0.85463733    -0.09100
C499        C  0.48275931  0.26233989  0.84308426     0.29700
C500        C  0.48359662  0.26190746  0.82168255    -0.21100
C501        C  0.00231745  0.24812739  0.81128130    -0.09100
C502        C  0.02029696  0.23463032  0.82283024     0.29700
F503        F  0.03882969  0.22109244  0.81353287    -0.19700
H504        H  0.03357856  0.22454897  0.85271130     0.18100
H505        H  0.46941188  0.27237111  0.81323711     0.18100
F506        F  0.46404021  0.27567735  0.85237078    -0.19600
C507        C  0.37615825  0.40918849  0.91597055    -0.21100
C508        C  0.40841320  0.40913131  0.91649685    -0.09100
C509        C  0.40757962  0.37642681  0.91740242     0.29700
C510        C  0.37521337  0.34470336  0.91766172    -0.21100
C511        C  0.34295854  0.34472345  0.91708128    -0.09100
C512        C  0.34375302  0.37742527  0.91627539     0.29700
F513        F  0.31333829  0.37889326  0.91568647    -0.19700
H514        H  0.37593697  0.43391382  0.91531611     0.18100
H515        H  0.37548166  0.32000444  0.91834677     0.18100
F516        F  0.43795147  0.37489120  0.91809442    -0.19600
C517        C  0.15876468  0.12679640  0.91809299    -0.21100
C518        C  0.15863932  0.15896106  0.91720924    -0.09100
C519        C  0.12582224  0.15799192  0.91625482     0.29700
C520        C  0.09409217  0.12560543  0.91619050    -0.21100
C521        C  0.09418349  0.09344016  0.91703321    -0.09100
C522        C  0.12698965  0.09436821  0.91801217     0.29700
F523        F  0.12854522  0.06405690  0.91898936    -0.19700
H524        H  0.18356537  0.12666688  0.91887172     0.18100
H525        H  0.06931777  0.12578385  0.91540037     0.18100
F526        F  0.12418230  0.18825770  0.91530726    -0.19600
C527        C  0.51289483  0.48354321  0.82192766    -0.21100
C528        C  0.99968846  0.00232926  0.81135109    -0.09100
C529        C  0.98694458  0.02110738  0.82273819     0.29700
C530        C  0.98766324  0.02077505  0.84415964    -0.21100
C531        C  0.00101338  0.00177572  0.85471034    -0.09100
C532        C  0.51352912  0.48320131  0.84333376     0.29700
F533        F  0.52639954  0.46421480  0.85280379    -0.19700
H534        H  0.52284078  0.46878112  0.81362649     0.18100
H535        H  0.97779796  0.03557236  0.85249932     0.18100
F536        F  0.97407438  0.04010008  0.81327044    -0.19600
C537        C  0.27779707  0.24946814  0.01142112    -0.21100
C538        C  0.25145865  0.25234208  0.02219726    -0.09100
C539        C  0.22526686  0.25530507  0.01120849     0.29700
C540        C  0.22561816  0.25550988  0.98979025    -0.21100
C541        C  0.25159046  0.25201380  0.97895795    -0.09100
C542        C  0.27770344  0.24887045  0.98999136     0.29700
F543        F  0.30348298  0.24578486  0.98012243    -0.19700
H544        H  0.29813945  0.24707478  0.01961845     0.18100
H545        H  0.20527202  0.25799541  0.98166505     0.18100
F546        F  0.19977841  0.25878676  0.02115621    -0.19600
C547        C  0.28132936  0.40763334  0.08785935    -0.21100
C548        C  0.25007361  0.40821269  0.08329479    -0.09100
C549        C  0.21898161  0.37600373  0.07893180     0.29700
C550        C  0.21930564  0.34407508  0.07930874    -0.21100
C551        C  0.25055403  0.34351101  0.08389794    -0.09100
C552        C  0.28166938  0.37572456  0.08819578     0.29700
F553        F  0.31235519  0.37646883  0.09307373    -0.19700
H554        H  0.30559611  0.43194894  0.09138529     0.18100
H555        H  0.19506155  0.31974082  0.07577595     0.18100
F556        F  0.18832812  0.37527175  0.07399154    -0.19600
C557        C  0.28283900  0.12584935  0.08412172    -0.21100
C558        C  0.25066310  0.09355182  0.08369001    -0.09100
C559        C  0.21863080  0.09422710  0.08316931     0.29700
C560        C  0.21900745  0.12648278  0.08310632    -0.21100
C561        C  0.25116216  0.15878100  0.08357370    -0.09100
C562        C  0.28321526  0.15812417  0.08407921     0.29700
F563        F  0.31502417  0.18857040  0.08451766    -0.19700
H564        H  0.30789990  0.12620596  0.08451730     0.18100
H565        H  0.19393566  0.12610080  0.08270552     0.18100
F566        F  0.18681756  0.06379748  0.08265006    -0.19600
C567        C  0.27924339  0.50478250  0.01095472    -0.21100
C568        C  0.25064043  0.00236727  0.02183744    -0.09100
C569        C  0.22170687  0.00025605  0.01095224     0.29700
C570        C  0.22181782  0.00051085  0.98952730    -0.21100
C571        C  0.25033401  0.00210097  0.97859900    -0.09100
C572        C  0.27904999  0.50440125  0.98952754     0.29700
F573        F  0.30746095  0.50682735  0.97943567    -0.19700
H574        H  0.30180883  0.50645126  0.01898320     0.18100
H575        H  0.19927670  0.99882457  0.98145717     0.18100
F576        F  0.19352707  0.99847236  0.02097583    -0.19600
C577        C  0.52841232  0.25742335  0.01042390    -0.21100
C578        C  0.99751063  0.25025616  0.02114615    -0.09100
C579        C  0.96690171  0.24298270  0.00996002     0.29700
C580        C  0.96757313  0.24334608  0.98851885    -0.21100
C581        C  0.99834654  0.25002252  0.97791884    -0.09100
C582        C  0.52878431  0.25698169  0.98902322     0.29700
F583        F  0.55918269  0.26430640  0.97917394    -0.19700
H584        H  0.55232530  0.26310645  0.01861954     0.18100
H585        H  0.94383926  0.23782721  0.98016599     0.18100
F586        F  0.93646813  0.23592756  0.01966093    -0.19600
C587        C  0.03018603  0.40781559  0.08312379    -0.21100
C588        C  0.49787410  0.40776503  0.08336778    -0.09100
C589        C  0.46596293  0.37502876  0.08363571     0.29700
C590        C  0.46659839  0.34327597  0.08358327    -0.21100
C591        C  0.49890651  0.34332041  0.08325978    -0.09100
C592        C  0.03082249  0.37606182  0.08306218     0.29700
F593        F  0.06274439  0.37759544  0.08278182    -0.19700
H594        H  0.05516819  0.43255142  0.08291717     0.18100
H595        H  0.44161359  0.31854315  0.08377455     0.18100
F596        F  0.43404572  0.37350242  0.08397513    -0.19600
C597        C  0.02987809  0.12490029  0.08086256    -0.21100
C598        C  0.49773763  0.09270903  0.08235523    -0.09100
C599        C  0.46585652  0.09354983  0.08385251     0.29700
C600        C  0.46638835  0.12589923  0.08386846    -0.21100
C601        C  0.49855592  0.15809131  0.08243975    -0.09100
C602        C  0.03041167  0.15723229  0.08090120     0.29700
F603        F  0.06218751  0.18754720  0.07936411    -0.19700
H604        H  0.05482410  0.12514036  0.07966690     0.18100
H605        H  0.44145777  0.12568782  0.08508965     0.18100
F606        F  0.43408720  0.06322436  0.08539672    -0.19600
C607        C  0.47280343  0.50240384  0.98860736    -0.21100
C608        C  0.99965170  0.99908778  0.97811767    -0.09100
C609        C  0.02518114  0.99555219  0.98949152     0.29700
C610        C  0.02437390  0.99575586  0.01090084    -0.21100
C611        C  0.99765592  0.99854039  0.02132330    -0.09100
C612        C  0.47153237  0.50170045  0.01002126     0.29700
F613        F  0.44571076  0.50505699  0.01964177    -0.19700
H614        H  0.45286217  0.50517322  0.98020883     0.18100
H615        H  0.04454458  0.99347243  0.01936870     0.18100
F616        F  0.05141554  0.99275123  0.97998579    -0.19600
C617        C  0.23435355  0.21424176  0.48931851    -0.21100
C618        C  0.24983688  0.24653460  0.47858378    -0.09100
C619        C  0.26517823  0.27838555  0.48981202     0.29700
C620        C  0.26492395  0.27772985  0.51122009    -0.21100
C621        C  0.24937889  0.24546234  0.52196477    -0.09100
C622        C  0.23404441  0.21358950  0.51075135     0.29700
F623        F  0.21874276  0.18172169  0.52039477    -0.19700
H624        H  0.22233183  0.18931341  0.48111829     0.18100
H625        H  0.27688391  0.30267840  0.51939751     0.18100
F626        F  0.28038657  0.31028461  0.48020684    -0.19600
C627        C  0.23060017  0.47009531  0.48928296    -0.21100
C628        C  0.25026267  0.00218127  0.47857669    -0.09100
C629        C  0.26935166  0.03378207  0.48982751     0.29700
C630        C  0.26880610  0.03305170  0.51124627    -0.21100
C631        C  0.24930517  0.00094842  0.52192723    -0.09100
C632        C  0.23004667  0.46927102  0.51068921     0.29700
F633        F  0.21058161  0.43757495  0.52022970    -0.19700
H634        H  0.21557956  0.44540452  0.48102204     0.18100
H635        H  0.28391699  0.05775565  0.51948292     0.18100
F636        F  0.28887963  0.06541070  0.48022786    -0.19600
C637        C  0.00489608  0.27739161  0.48894667    -0.21100
C638        C  0.99750632  0.24666152  0.47803373    -0.09100
C639        C  0.49018358  0.21592937  0.48904585     0.29700
C640        C  0.49021812  0.21609947  0.51046260    -0.21100
C641        C  0.99773358  0.24683996  0.52137485    -0.09100
C642        C  0.00498782  0.27757412  0.51038027     0.29700
F643        F  0.01164535  0.30768439  0.52026799    -0.19700
H644        H  0.01042914  0.30135154  0.48087847     0.18100
H645        H  0.48478717  0.19216637  0.51852544     0.18100
F646        F  0.48368012  0.18584355  0.47919538    -0.19600
C647        C  0.40602416  0.27934044  0.41318565    -0.21100
C648        C  0.40634485  0.24738538  0.41513843    -0.09100
C649        C  0.37377131  0.21548957  0.41689134     0.29700
C650        C  0.34184348  0.21581286  0.41693895    -0.21100
C651        C  0.34152139  0.24777977  0.41525727    -0.09100
C652        C  0.37405144  0.27965264  0.41320944     0.29700
F653        F  0.37513671  0.31118206  0.41115937    -0.19700
H654        H  0.43061737  0.30426317  0.41167226     0.18100
H655        H  0.31727319  0.19087794  0.41848645     0.18100
F656        F  0.37257497  0.18388628  0.41876166    -0.19600
C657        C  0.09184994  0.21625135  0.41269303    -0.21100
C658        C  0.09140014  0.24739066  0.41769408    -0.09100
C659        C  0.12346659  0.27789198  0.42301041     0.29700
C660        C  0.15521253  0.27719828  0.42299084    -0.21100
C661        C  0.15569239  0.24615159  0.41782789    -0.09100
C662        C  0.12358645  0.21553493  0.41272835     0.29700
F663        F  0.12284901  0.18511037  0.40728820    -0.19700
H664        H  0.06759873  0.19241470  0.40848092     0.18100
H665        H  0.17949910  0.30104313  0.42714737     0.18100
F666        F  0.12423538  0.30832290  0.42846025    -0.19600
C667        C  0.51901215  0.03296514  0.51051233    -0.21100
C668        C  0.00018460  0.00087233  0.52128348    -0.09100
C669        C  0.98146891  0.46920930  0.51004613     0.29700
C670        C  0.98142665  0.46991867  0.48863448    -0.21100
C671        C  0.99988090  0.00189586  0.47792245    -0.09100
C672        C  0.51894978  0.03359117  0.48909554     0.29700
F673        F  0.53785509  0.06523914  0.47941933    -0.19700
H674        H  0.53397581  0.05776507  0.51867555     0.18100
H675        H  0.96654183  0.44513721  0.48044158     0.18100
F676        F  0.96272513  0.43748787  0.51966933    -0.19600
C677        C  0.37532902  0.47021881  0.41392567    -0.21100
C678        C  0.40743871  0.00193116  0.41587224    -0.09100
C679        C  0.40656936  0.03360106  0.41825496     0.29700
C680        C  0.37421139  0.03305871  0.41839376    -0.21100
C681        C  0.34203541  0.00107427  0.41618374    -0.09100
C682        C  0.34294523  0.46965531  0.41406359     0.29700
F683        F  0.31263002  0.43808978  0.41175699    -0.19700
H684        H  0.37517032  0.44544303  0.41206009     0.18100
H685        H  0.37440639  0.05783588  0.42035323     0.18100
F686        F  0.43686880  0.06512983  0.42071013    -0.19600
C687        C  0.12552669  0.47041202  0.41753775    -0.21100
C688        C  0.15776008  0.00260454  0.41715541    -0.09100
C689        C  0.15682656  0.03443364  0.41669714     0.29700
C690        C  0.12436364  0.03368725  0.41656023    -0.21100
C691        C  0.09218404  0.00134342  0.41686983    -0.09100
C692        C  0.09309385  0.46969818  0.41737812     0.29700
F693        F  0.06276119  0.43780151  0.41786583    -0.19700
H694        H  0.12535852  0.44548180  0.41798357     0.18100
H695        H  0.12448968  0.05859914  0.41615708     0.18100
F696        F  0.18715598  0.06634276  0.41634808    -0.19600
C697        C  0.21828615  0.22619401  0.17784895    -0.21100
C698        C  0.24868844  0.25025722  0.18876924    -0.09100
C699        C  0.27929087  0.27411820  0.17781422     0.29700
C700        C  0.27934743  0.27369795  0.15640703    -0.21100
C701        C  0.24897131  0.24966042  0.14546905    -0.09100
C702        C  0.21835421  0.22573443  0.15642261     0.29700
F703        F  0.18866778  0.20143363  0.14650794    -0.19700
H704        H  0.19448954  0.20735269  0.18591519     0.18100
H705        H  0.30316597  0.29256040  0.14836912     0.18100
F706        F  0.30899312  0.29838470  0.18772516    -0.19600
C707        C  0.21794645  0.22211826  0.32276272    -0.21100
C708        C  0.24727482  0.24860713  0.31208080    -0.09100
C709        C  0.27634122  0.27456771  0.32322361     0.29700
C710        C  0.27582925  0.27406007  0.34462247    -0.21100
C711        C  0.24681086  0.24726485  0.35527478    -0.09100
C712        C  0.21782259  0.22114626  0.34419131     0.29700
F713        F  0.18906748  0.19521722  0.35405477    -0.19700
H714        H  0.19528161  0.20185769  0.31450536     0.18100
H715        H  0.29842793  0.29437644  0.35290203     0.18100
F716        F  0.30500461  0.30082890  0.31348016    -0.19600
C717        C  0.28116920  0.40718453  0.25129380    -0.21100
C718        C  0.24917431  0.40770901  0.25083476    -0.09100
C719        C  0.21695795  0.37520859  0.25040457     0.29700
C720        C  0.21699578  0.34314651  0.25038938    -0.21100
C721        C  0.24898804  0.34261697  0.25078890    -0.09100
C722        C  0.28120684  0.37511539  0.25126333     0.29700
F723        F  0.31287333  0.37611213  0.25168633    -0.19700
H724        H  0.30635126  0.43170188  0.25163070     0.18100
H725        H  0.19180978  0.31863478  0.25003414     0.18100
F726        F  0.18528460  0.37419933  0.25000411    -0.19600
C727        C  0.21757426  0.09276568  0.25311595    -0.21100
C728        C  0.24963967  0.09296645  0.24996378    -0.09100
C729        C  0.28086710  0.12561854  0.24681031     0.29700
C730        C  0.27985898  0.15717528  0.24693783    -0.21100
C731        C  0.24782101  0.15698521  0.25013050    -0.09100
C732        C  0.21655883  0.12432787  0.25321747     0.29700
F733        F  0.18503275  0.12276019  0.25660550    -0.19700
H734        H  0.19312072  0.06807548  0.25564892     0.18100
H735        H  0.30431370  0.18186933  0.24441819     0.18100
F736        F  0.31239802  0.12720778  0.24342165    -0.19600
C737        C  0.21962490  0.49169416  0.17784839    -0.21100
C738        C  0.25092662  0.50077116  0.18867022    -0.09100
C739        C  0.28223316  0.01035311  0.17751997     0.29700
C740        C  0.28193585  0.01041764  0.15608902    -0.21100
C741        C  0.25040897  0.50081788  0.14532443    -0.09100
C742        C  0.21927448  0.49175814  0.15643467     0.29700
F743        F  0.18855263  0.48351861  0.14667981    -0.19700
H744        H  0.19529849  0.48475049  0.18597519     0.18100
H745        H  0.30635325  0.01772565  0.14796270     0.18100
F746        F  0.31312803  0.01933214  0.18729964    -0.19600
C747        C  0.22241799  0.47330491  0.32283656    -0.21100
C748        C  0.24972790  0.50165794  0.31201518    -0.09100
C749        C  0.27766710  0.02896206  0.32298491     0.29700
C750        C  0.27711857  0.02905151  0.34440122    -0.21100
C751        C  0.24898297  0.00149015  0.35522317    -0.09100
C752        C  0.22227515  0.47299277  0.34425975     0.29700
F753        F  0.19547463  0.44502617  0.35417266    -0.19700
H754        H  0.20140245  0.45108280  0.31468475     0.18100
H755        H  0.29900589  0.05045711  0.35254911     0.18100
F756        F  0.30539943  0.05604074  0.31307679    -0.19600
C757        C  0.03164820  0.26344890  0.17708383    -0.21100
C758        C  0.99972586  0.25065694  0.18800902    -0.09100
C759        C  0.46781527  0.23785767  0.17697782     0.29700
C760        C  0.46806947  0.23793196  0.15555753    -0.21100
C761        C  0.99999259  0.25076704  0.14463310    -0.09100
C762        C  0.03190120  0.26353049  0.15566009     0.29700
F763        F  0.06340056  0.27587431  0.14583588    -0.19700
H764        H  0.05660359  0.27335351  0.18513384     0.18100
H765        H  0.44311301  0.22802666  0.14750785     0.18100
F766        F  0.43630059  0.22545664  0.18679254    -0.19600
C767        C  0.47441645  0.22200997  0.32194684    -0.21100
C768        C  0.00201311  0.25056583  0.31140268    -0.09100
C769        C  0.02933930  0.27828308  0.32265521     0.29700
C770        C  0.02859208  0.27754388  0.34409394    -0.21100
C771        C  0.00109571  0.24883092  0.35464498    -0.09100
C772        C  0.47408954  0.22086008  0.34334851     0.29700
F773        F  0.44689013  0.19277454  0.35294676    -0.19700
H774        H  0.45319235  0.20031399  0.31358028     0.18100
H775        H  0.04970526  0.29933454  0.35246059     0.18100
F776        F  0.05624534  0.30650878  0.31297527    -0.19600
C777        C  0.46937041  0.37653470  0.24829893    -0.21100
C778        C  0.50151009  0.40879419  0.24948047    -0.09100
C779        C  0.03345715  0.40805818  0.25074911     0.29700
C780        C  0.03298541  0.37572717  0.25082497    -0.21100
C781        C  0.00080733  0.34346909  0.24968959    -0.09100
C782        C  0.46889597  0.34424037  0.24839696     0.29700
F783        F  0.43712804  0.31387428  0.24708839    -0.19700
H784        H  0.44436225  0.37620652  0.24726954     0.18100
H785        H  0.05796735  0.37600070  0.25185739     0.18100
F786        F  0.06520931  0.43845797  0.25201711    -0.19600
C787        C  0.46876674  0.12645707  0.25257307    -0.21100
C788        C  0.00079002  0.15842087  0.24972643    -0.09100
C789        C  0.03226074  0.15723901  0.24697358     0.29700
C790        C  0.03151929  0.12481528  0.24712796    -0.21100
C791        C  0.49952670  0.09284296  0.24998751    -0.09100
C792        C  0.46802825  0.09399985  0.25274155     0.29700
F793        F  0.43651178  0.06391210  0.25577099    -0.19700
H794        H  0.44413551  0.12653173  0.25480795     0.18100
H795        H  0.05617536  0.12479766  0.24488061     0.18100
F796        F  0.06378116  0.18729591  0.24389349    -0.19600
C797        C  0.03106335  0.02162179  0.17705981    -0.21100
C798        C  0.99939631  0.00109318  0.18796498    -0.09100
C799        C  0.46751758  0.48071301  0.17694569     0.29700
C800        C  0.46768835  0.48115556  0.15553527    -0.21100
C801        C  0.99951884  0.00185961  0.14461519    -0.09100
C802        C  0.03123787  0.02213222  0.15563711     0.29700
F803        F  0.06245936  0.04267434  0.14581163    -0.19700
H804        H  0.05583220  0.03753419  0.18512726     0.18100
H805        H  0.44290869  0.46517747  0.14749214     0.18100
F806        F  0.43631523  0.46010141  0.18677149    -0.19600
C807        C  0.47307905  0.47304677  0.34380933    -0.21100
C808        C  0.00092051  0.00088155  0.35456736    -0.09100
C809        C  0.02928238  0.02796634  0.34353229     0.29700
C810        C  0.02932610  0.02728530  0.32210891    -0.21100
C811        C  0.00081978  0.00004325  0.31133945    -0.09100
C812        C  0.47278099  0.47264218  0.32239229     0.29700
F813        F  0.44548339  0.44503603  0.31256021    -0.19700
H814        H  0.45133646  0.45156844  0.35202345     0.18100
H815        H  0.05144366  0.04839953  0.31392248     0.18100
F816        F  0.05729966  0.05470016  0.35343090    -0.19600
O817        O  0.02978632  0.97217929  0.24979426    -0.71500
O818        O  0.02835488  0.55855039  0.24929560    -0.71800
O819        O  0.02930860  0.51600300  0.27868929    -0.71600
O820        O  0.02858088  0.51485994  0.22045214    -0.71600
O821        O  0.47118496  0.98685127  0.22077802    -0.71600
O822        O  0.47188579  0.98503467  0.27886452    -0.71600
O823        O  0.47086028  0.52931654  0.25053864    -0.71600
O824        O  0.47227036  0.94285542  0.24915971    -0.71700
V825        V  0.02788046  0.51480699  0.24957492     1.35200
V826        V  0.47270115  0.98662634  0.24981911     1.35200
C827        C  0.50125686  0.94269849  0.24943914     0.77700
C828        C  0.49944090  0.55877966  0.24999385     0.77700
C829        C  0.00061546  0.50030939  0.28869858     0.77600
C830        C  0.99962684  0.50083219  0.21065614     0.77600
O831        O  0.02966957  0.72178698  0.25007940    -0.71500
O832        O  0.02964233  0.80895917  0.24927440    -0.71800
O833        O  0.03011073  0.76630463  0.27879272    -0.71600
O834        O  0.02930374  0.76461406  0.22059275    -0.71600
O835        O  0.47179116  0.73712290  0.22086820    -0.71600
O836        O  0.47253549  0.73588088  0.27902471    -0.71600
O837        O  0.47214065  0.78013269  0.25035949    -0.71600
O838        O  0.47213479  0.69304353  0.24955223    -0.71700
V839        V  0.02857973  0.76484618  0.24969336     1.35200
V840        V  0.47327154  0.73714115  0.24994693     1.35200
C841        C  0.00089890  0.69248921  0.24982512     0.77700
C842        C  0.00083612  0.80945209  0.24975625     0.77700
C843        C  0.00144199  0.75101726  0.28882393     0.77600
C844        C  0.00040398  0.75085089  0.21076149     0.77600
O845        O  0.27839302  0.97107021  0.25142837    -0.71500
O846        O  0.27890253  0.55863235  0.24939481    -0.71800
O847        O  0.27865592  0.51666830  0.27953648    -0.71600
O848        O  0.27921623  0.51358575  0.22145438    -0.71600
O849        O  0.22164717  0.98741254  0.22113419    -0.71600
O850        O  0.22093159  0.98535209  0.27937743    -0.71600
O851        O  0.22142237  0.52994608  0.25092060    -0.71600
O852        O  0.22094306  0.94275781  0.24975718    -0.71700
V853        V  0.27775541  0.51445516  0.25049055     1.35200
V854        V  0.22230949  0.98690158  0.25026145     1.35200
C855        C  0.24948694  0.94188005  0.25067067     0.77700
C856        C  0.25012810  0.55919669  0.25005639     0.77700
C857        C  0.24963923  0.00108910  0.28936281     0.77600
C858        C  0.25056023  0.00054651  0.21130809     0.77600
O859        O  0.27642103  0.72009341  0.25023981    -0.71500
O860        O  0.27695600  0.80733747  0.25090210    -0.71800
O861        O  0.27624637  0.76309341  0.27963727    -0.71600
O862        O  0.27700648  0.76444495  0.22153610    -0.71600
O863        O  0.21944592  0.73553313  0.22124787    -0.71600
O864        O  0.21865704  0.73451941  0.27946004    -0.71600
O865        O  0.21943525  0.77903752  0.25052224    -0.71600
O866        O  0.21887517  0.69146206  0.25022071    -0.71700
V867        V  0.27550800  0.76315038  0.25057934     1.35200
V868        V  0.22018919  0.73571923  0.25036269     1.35200
C869        C  0.24762963  0.69085293  0.25016558     0.77700
C870        C  0.24838557  0.80822249  0.25078447     0.77700
C871        C  0.24736041  0.74860522  0.28947185     0.77600
C872        C  0.24839674  0.75017334  0.21144970     0.77600
O873        O  0.48544222  0.97302532  0.44534612    -0.71500
O874        O  0.48498175  0.97250259  0.38717163    -0.71800
O875        O  0.02876729  0.97259092  0.41625229    -0.71600
O876        O  0.44177870  0.97300977  0.41627459    -0.71600
O877        O  0.47087959  0.53078142  0.41563405    -0.71600
O878        O  0.05775807  0.53028988  0.41656048    -0.71600
O879        O  0.01515513  0.53030803  0.38698332    -0.71600
O880        O  0.01382613  0.53073867  0.44515880    -0.71700
V881        V  0.48580912  0.97388918  0.41625474     1.35200
V882        V  0.01378973  0.52941501  0.41607611     1.35200
C883        C  0.99981295  0.50208033  0.45520052     0.77700
C884        C  0.00029978  0.50146943  0.37714934     0.77700
C885        C  0.05814799  0.50148015  0.41648203     0.77600
C886        C  0.44147880  0.50215828  0.41598526     0.77600
O887        O  0.01075544  0.77556411  0.44551861    -0.71500
O888        O  0.01567690  0.77648699  0.38739649    -0.71800
O889        O  0.46943317  0.77583451  0.41497742    -0.71600
O890        O  0.05674508  0.77602806  0.41797378    -0.71600
O891        O  0.02813125  0.71866547  0.41583379    -0.71600
O892        O  0.44093594  0.71843141  0.41649736    -0.71600
O893        O  0.48417829  0.71906922  0.38708714    -0.71600
O894        O  0.48495060  0.71818246  0.44526429    -0.71700
V895        V  0.01260353  0.77490636  0.41645366     1.35200
V896        V  0.48509638  0.71969137  0.41617816     1.35200
C897        C  0.99770830  0.74672201  0.45535169     0.77700
C898        C  0.00019428  0.74793768  0.37730272     0.77700
C899        C  0.44017657  0.74700930  0.41553200     0.77600
C900        C  0.05734756  0.74733133  0.41716340     0.77600
O901        O  0.27863049  0.97269359  0.41616879    -0.71500
O902        O  0.19202730  0.97370171  0.41761839    -0.71800
O903        O  0.23394614  0.97297284  0.38784534    -0.71600
O904        O  0.23639430  0.97341535  0.44598630    -0.71600
O905        O  0.26421370  0.53101415  0.44591401    -0.71600
O906        O  0.26493881  0.53059322  0.38771406    -0.71600
O907        O  0.22113523  0.53125119  0.41653914    -0.71600
O908        O  0.30785981  0.53035561  0.41709459    -0.71700
V909        V  0.23585112  0.97430860  0.41690878     1.35200
V910        V  0.26396256  0.52970288  0.41681938     1.35200
C911        C  0.30811895  0.50147633  0.41664082     0.77700
C912        C  0.19170835  0.50266724  0.41706995     0.77700
C913        C  0.24940060  0.50176231  0.37788338     0.77600
C914        C  0.25021848  0.50233619  0.45593956     0.77600
O915        O  0.27774423  0.71789249  0.41597127    -0.71500
O916        O  0.19016684  0.71717745  0.41761060    -0.71800
O917        O  0.23241980  0.71741670  0.38774960    -0.71600
O918        O  0.23517296  0.71756593  0.44594970    -0.71600
O919        O  0.26290276  0.77501443  0.44586519    -0.71600
O920        O  0.26201219  0.77496353  0.38774774    -0.71600
O921        O  0.21866201  0.77467178  0.41719145    -0.71600
O922        O  0.30613747  0.77535525  0.41638905    -0.71700
V923        V  0.23445696  0.71861043  0.41683600     1.35200
V924        V  0.26184817  0.77386927  0.41680391     1.35200
C925        C  0.30695289  0.74678307  0.41587601     0.77700
C926        C  0.18946497  0.74583276  0.41752105     0.77700
C927        C  0.24691110  0.74621058  0.37784957     0.77600
C928        C  0.24923778  0.74634315  0.45587774     0.77600
O929        O  0.02683318  0.55823469  0.08172164    -0.71500
O930        O  0.02719245  0.97138212  0.08376956    -0.71800
O931        O  0.02632673  0.51271281  0.05368179    -0.71600
O932        O  0.02741666  0.51642802  0.11174393    -0.71600
O933        O  0.47012923  0.98576920  0.11215971    -0.71600
O934        O  0.46901943  0.98643531  0.05393349    -0.71600
O935        O  0.46969135  0.94258114  0.08270689    -0.71600
O936        O  0.46938513  0.52963812  0.08351708    -0.71700
V937        V  0.02571428  0.51408463  0.08271265     1.35200
V938        V  0.47062871  0.98659327  0.08304745     1.35200
C939        C  0.99810093  0.55886650  0.08259492     0.77700
C940        C  0.99846302  0.94205914  0.08331768     0.77700
C941        C  0.99743158  0.49937579  0.04390681     0.77600
C942        C  0.99890791  0.50130433  0.12191686     0.77600
O943        O  0.02854549  0.80903998  0.08274580    -0.71500
O944        O  0.02824373  0.72179759  0.08256739    -0.71800
O945        O  0.02763332  0.76509939  0.05356156    -0.71600
O946        O  0.02906869  0.76555282  0.11175945    -0.71600
O947        O  0.47154228  0.73712727  0.11220525    -0.71600
O948        O  0.47010206  0.73655368  0.05402783    -0.71600
O949        O  0.47072303  0.69318435  0.08310817    -0.71600
O950        O  0.47102311  0.78049787  0.08316384    -0.71700
V951        V  0.02725354  0.76483310  0.08266500     1.35200
V952        V  0.47196016  0.73739256  0.08311569     1.35200
C953        C  0.49985348  0.80973659  0.08300997     0.77700
C954        C  0.49947221  0.69255612  0.08280653     0.77700
C955        C  0.49861937  0.75067292  0.04382865     0.77600
C956        C  0.00053317  0.75137305  0.12195007     0.77600
O957        O  0.22202016  0.98792339  0.05443550    -0.71500
O958        O  0.22194789  0.98592547  0.11254731    -0.71800
O959        O  0.22186786  0.53024409  0.08416394    -0.71600
O960        O  0.22187819  0.94317477  0.08282832    -0.71600
O961        O  0.27939887  0.97167290  0.08372611    -0.71600
O962        O  0.27938389  0.55890499  0.08342137    -0.71600
O963        O  0.27927666  0.51542309  0.11270015    -0.71600
O964        O  0.27926588  0.51493162  0.05446016    -0.71700
V965        V  0.22312181  0.98735266  0.08348115     1.35200
V966        V  0.27816226  0.51465450  0.08358759     1.35200
C967        C  0.25045174  0.50168904  0.04456220     0.77700
C968        C  0.25046200  0.50070445  0.12263346     0.77700
C969        C  0.25060302  0.55949319  0.08382598     0.77600
C970        C  0.25055979  0.94245546  0.08318295     0.77600
O971        O  0.27954694  0.80896759  0.08349882    -0.71500
O972        O  0.27961207  0.72199206  0.08458430    -0.71800
O973        O  0.28014590  0.76481697  0.05488963    -0.71600
O974        O  0.27873346  0.76585879  0.11312236    -0.71600
O975        O  0.22122738  0.73517266  0.11262453    -0.71600
O976        O  0.22258977  0.73828681  0.05455261    -0.71600
O977        O  0.22215645  0.69317648  0.08290176    -0.71600
O978        O  0.22200629  0.78035882  0.08420772    -0.71700
V979        V  0.27840167  0.76487101  0.08401140     1.35200
V980        V  0.22309672  0.73727997  0.08358549     1.35200
C981        C  0.25083801  0.80961481  0.08384528     0.77700
C982        C  0.25097797  0.69269689  0.08375814     0.77700
C983        C  0.25152861  0.75181546  0.04481258     0.77600
C984        C  0.24969577  0.75023675  0.12282090     0.77600
O985        O  0.03050812  0.55930448  0.91726027    -0.71500
O986        O  0.44334101  0.97219240  0.91593682    -0.71800
O987        O  0.48561980  0.51447175  0.94562607    -0.71600
O988        O  0.48760444  0.51703583  0.88748631    -0.71600
O989        O  0.01516856  0.98660166  0.88728937    -0.71600
O990        O  0.01603914  0.98678831  0.94549190    -0.71600
O991        O  0.47197975  0.94332167  0.91660083    -0.71600
O992        O  0.05910214  0.53040195  0.91631572    -0.71700
V993        V  0.48729953  0.51529389  0.91656295     1.35200
V994        V  0.01509771  0.98727249  0.91639641     1.35200
C995        C  0.05979941  0.55973351  0.91693499     0.77700
C996        C  0.44270759  0.94285951  0.91629869     0.77700
C997        C  0.00033907  0.50033395  0.95549171     0.77600
C998        C  0.00122556  0.50201868  0.87742234     0.77600
O999        O  0.05752450  0.77862970  0.91611194    -0.71500
O1000       O  0.47041837  0.69148996  0.91727290    -0.71800
O1001       O  0.01358739  0.73384639  0.88758020    -0.71600
O1002       O  0.01471430  0.73655979  0.94573830    -0.71600
O1003       O  0.48325576  0.76265780  0.94522770    -0.71600
O1004       O  0.48656433  0.76430876  0.88704240    -0.71600
O1005       O  0.44157313  0.72007836  0.91537631    -0.71600
O1006       O  0.02863445  0.80724741  0.91689448    -0.71700
V1007       V  0.01346146  0.73563707  0.91665905     1.35200
V1008       V  0.48560258  0.76307018  0.91614084     1.35200
C1009       C  0.05801972  0.80787131  0.91660098     0.77700
C1010       C  0.44107068  0.69084960  0.91632753     0.77700
C1011       C  0.00019604  0.74893082  0.87734439     0.77600
C1012       C  0.99888767  0.74976471  0.95536138     0.77600
O1013       O  0.30671156  0.52960946  0.91663538    -0.71500
O1014       O  0.21983517  0.94222427  0.91775487    -0.71800
O1015       O  0.26282875  0.98484269  0.88808018    -0.71600
O1016       O  0.26443982  0.98719971  0.94618886    -0.71600
O1017       O  0.23386532  0.51457514  0.94606161    -0.71600
O1018       O  0.23459849  0.51446788  0.88780683    -0.71600
O1019       O  0.19093711  0.97081975  0.91674617    -0.71600
O1020       O  0.27779149  0.55821533  0.91696749    -0.71700
V1021       V  0.26287552  0.98643067  0.91713354     1.35200
V1022       V  0.23481363  0.51402189  0.91693336     1.35200
C1023       C  0.30715820  0.55884808  0.91670312     0.77700
C1024       C  0.19044445  0.94158262  0.91727504     0.77700
C1025       C  0.24876382  0.49969010  0.87801746     0.77600
C1026       C  0.24936251  0.50137636  0.95607796     0.77600
O1027       O  0.27962375  0.80986209  0.91764568    -0.71500
O1028       O  0.19282865  0.72249315  0.91720978    -0.71800
O1029       O  0.23601953  0.76548397  0.94654108    -0.71600
O1030       O  0.23638842  0.76672507  0.88832418    -0.71600
O1031       O  0.26443889  0.73726539  0.88810361    -0.71600
O1032       O  0.26641588  0.73834437  0.94625821    -0.71600
O1033       O  0.22182436  0.69397819  0.91767789    -0.71600
O1034       O  0.30870586  0.78144502  0.91670408    -0.71700
V1035       V  0.23678041  0.76559236  0.91743119     1.35200
V1036       V  0.26476126  0.73828335  0.91718841     1.35200
C1037       C  0.30903661  0.81063157  0.91711623     0.77700
C1038       C  0.19240458  0.69327910  0.91747096     0.77700
C1039       C  0.25147411  0.75200625  0.95633787     0.77600
C1040       C  0.25035889  0.75206562  0.87824024     0.77600
O1041       O  0.01570830  0.52960533  0.55389349    -0.71500
O1042       O  0.01379104  0.52980297  0.61207545    -0.71800
O1043       O  0.05835986  0.52969334  0.58363882    -0.71600
O1044       O  0.47135331  0.52980439  0.58233612    -0.71600
O1045       O  0.44245179  0.97256529  0.58333226    -0.71600
O1046       O  0.02964613  0.97247141  0.58290088    -0.71600
O1047       O  0.48652199  0.97259519  0.61220270    -0.71600
O1048       O  0.48552450  0.97227506  0.55404089    -0.71700
V1049       V  0.01426955  0.52860930  0.58298634     1.35200
V1050       V  0.48658297  0.97357622  0.58311641     1.35200
C1051       C  0.00062298  0.50083747  0.54397379     0.77700
C1052       C  0.00008404  0.50108405  0.62206059     0.77700
C1053       C  0.05896731  0.50099943  0.58335808     0.77600
C1054       C  0.44203657  0.50114555  0.58272023     0.77600
O1055       O  0.44137271  0.71740805  0.58328371    -0.71500
O1056       O  0.02855218  0.71763332  0.58278605    -0.71800
O1057       O  0.48537225  0.71722150  0.61211229    -0.71600
O1058       O  0.48483299  0.71796498  0.55390408    -0.71600
O1059       O  0.01288212  0.77544601  0.55412748    -0.71600
O1060       O  0.01430018  0.77469448  0.61227115    -0.71600
O1061       O  0.05727816  0.77509924  0.58268288    -0.71600
O1062       O  0.46993574  0.77486769  0.58373988    -0.71700
V1063       V  0.48556441  0.71867818  0.58301358     1.40000
V1064       V  0.01305624  0.77392034  0.58319946     1.35200
C1065       C  0.44068520  0.74605682  0.58361821     0.77700
C1066       C  0.05782836  0.74633913  0.58274158     0.77700
C1067       C  0.00020555  0.74585972  0.62214814     0.77600
C1068       C  0.99862974  0.74684737  0.54406454     0.77600
O1069       O  0.19223677  0.97176924  0.58440046    -0.71500
O1070       O  0.27937501  0.97196671  0.58287413    -0.71800
O1071       O  0.23710546  0.97181791  0.61274026    -0.71600
O1072       O  0.23471293  0.97201739  0.55458579    -0.71600
O1073       O  0.26453195  0.52918335  0.55469219    -0.71600
O1074       O  0.26427056  0.52880657  0.61285669    -0.71600
O1075       O  0.30807769  0.52903919  0.58375403    -0.71600
O1076       O  0.22074143  0.52882249  0.58375046    -0.71700
V1077       V  0.23639857  0.97301480  0.58365874     1.35200
V1078       V  0.26386430  0.52786341  0.58377114     1.35200
C1079       C  0.19149289  0.50001805  0.58414187     0.77700
C1080       C  0.30863043  0.50029927  0.58314064     0.77700
C1081       C  0.25087290  0.50002525  0.62275515     0.77600
C1082       C  0.24940424  0.50051935  0.54468812     0.77600
O1083       O  0.26436455  0.77494172  0.55445684    -0.71500
O1084       O  0.26336757  0.77627496  0.61263675    -0.71800
O1085       O  0.30750559  0.77564480  0.58404369    -0.71600
O1086       O  0.22046848  0.77568488  0.58299840    -0.71600
O1087       O  0.19165533  0.71826499  0.58434913    -0.71600
O1088       O  0.27885064  0.71818335  0.58363013    -0.71600
O1089       O  0.23623508  0.71879058  0.61308735    -0.71600
O1090       O  0.23437649  0.71750127  0.55489620    -0.71700
V1091       V  0.26339000  0.77451669  0.58354886     1.35200
V1092       V  0.23580265  0.71928149  0.58398585     1.35200
C1093       C  0.24929945  0.74599610  0.54470643     0.77700
C1094       C  0.24991734  0.74774568  0.62279596     0.77700
C1095       C  0.30813002  0.74695808  0.58383190     0.77600
C1096       C  0.19116442  0.74703800  0.58360064     0.77600
O1097       O  0.47025478  0.94486163  0.75000755    -0.71500
O1098       O  0.05775449  0.53149230  0.74924092    -0.71800
O1099       O  0.01448522  0.98865573  0.77867150    -0.71600
O1100       O  0.01322175  0.98735874  0.72051669    -0.71600
O1101       O  0.48682569  0.51837316  0.72041074    -0.71600
O1102       O  0.48447952  0.51632308  0.77861447    -0.71600
O1103       O  0.02934032  0.56057292  0.75019954    -0.71600
O1104       O  0.44175997  0.97386014  0.74890733    -0.71700
V1105       V  0.01340931  0.98867295  0.74960061     1.35200
V1106       V  0.48610828  0.51668161  0.74950918     1.35200
C1107       C  0.44102960  0.94447223  0.74943697     0.77700
C1108       C  0.05855329  0.56089686  0.74981840     0.77700
C1109       C  0.99942778  0.50254983  0.78862161     0.77600
C1110       C  0.00011577  0.50283751  0.71055800     0.77600
O1111       O  0.44523002  0.71826595  0.74841753    -0.71500
O1112       O  0.03206636  0.80535350  0.75019200    -0.71800
O1113       O  0.49055785  0.76314978  0.72026930    -0.71600
O1114       O  0.48707903  0.76065575  0.77840052    -0.71600
O1115       O  0.01843001  0.73456319  0.77877179    -0.71600
O1116       O  0.01648842  0.73153900  0.72058618    -0.71600
O1117       O  0.06114672  0.77694825  0.74893285    -0.71600
O1118       O  0.47395954  0.68957707  0.75044584    -0.71700
V1119       V  0.48926653  0.76127134  0.74933057     1.35200
V1120       V  0.01700446  0.73372441  0.74967497     1.35200
C1121       C  0.44464590  0.68899495  0.74941241     0.77700
C1122       C  0.06146725  0.80615584  0.74954798     0.77700
C1123       C  0.00364135  0.74730733  0.71054963     0.77600
C1124       C  0.00261662  0.74764447  0.78855780     0.77600
O1125       O  0.19411101  0.96891986  0.74934023    -0.71500
O1126       O  0.28104050  0.55659157  0.75068813    -0.71800
O1127       O  0.23876783  0.51396970  0.72106566    -0.71600
O1128       O  0.23626453  0.51205136  0.77913755    -0.71600
O1129       O  0.26762668  0.98573862  0.77936285    -0.71600
O1130       O  0.26539963  0.98304412  0.72109447    -0.71600
O1131       O  0.30990336  0.52796812  0.74942674    -0.71600
O1132       O  0.22337705  0.94073966  0.75101161    -0.71700
V1133       V  0.23804544  0.51233840  0.75009410     1.35200
V1134       V  0.26606204  0.98494863  0.75022966     1.35200
C1135       C  0.19391734  0.93978078  0.75015815     0.77700
C1136       C  0.31040091  0.55721393  0.74994687     0.77700
C1137       C  0.25217339  0.99860727  0.71116473     0.77600
C1138       C  0.25191794  0.99890160  0.78920468     0.77600
O1139       O  0.23609975  0.76530632  0.77936521    -0.71500
O1140       O  0.23724769  0.76607516  0.72112077    -0.71800
O1141       O  0.19319827  0.72196611  0.74997928    -0.71600
O1142       O  0.27992980  0.80934589  0.75046631    -0.71600
O1143       O  0.30905025  0.78095475  0.74978130    -0.71600
O1144       O  0.22215241  0.69342512  0.75100306    -0.71600
O1145       O  0.26468403  0.73594236  0.72131514    -0.71600
O1146       O  0.26640720  0.73812298  0.77945987    -0.71700
V1147       V  0.23715732  0.76509717  0.75024089     1.35200
V1148       V  0.26505282  0.73769780  0.75038775     1.35200
C1149       C  0.25127184  0.75175447  0.78938779     0.77700
C1150       C  0.25091156  0.75085691  0.71129488     0.77700
C1151       C  0.19276577  0.69273642  0.75052213     0.77600
C1152       C  0.30935647  0.81014607  0.75005398     0.77600
C1153       C  0.37838883  0.65545990  0.74798500    -0.21100
C1154       C  0.41045471  0.65511761  0.74941122    -0.09100
C1155       C  0.40922537  0.62227919  0.75088969     0.29700
C1156       C  0.37664105  0.59072958  0.75101126    -0.21100
C1157       C  0.34457522  0.59108456  0.74970311    -0.09100
C1158       C  0.34579854  0.62390051  0.74812248     0.29700
F1159       F  0.31562037  0.62566388  0.74656367    -0.19700
H1160       H  0.37844895  0.68027693  0.74675740     0.18100
H1161       H  0.37657899  0.56590967  0.75223082     0.18100
F1162       F  0.43939133  0.62045954  0.75229010    -0.19600
C1163       C  0.12766678  0.84096486  0.75174384    -0.21100
C1164       C  0.09528178  0.84039145  0.74958112    -0.09100
C1165       C  0.09568229  0.87279985  0.74756795     0.29700
C1166       C  0.12777065  0.90486382  0.74781322    -0.21100
C1167       C  0.16015949  0.90546702  0.75003948    -0.09100
C1168       C  0.15976989  0.87304375  0.75201283     0.29700
F1169       F  0.19030668  0.87214382  0.75431317    -0.19700
H1170       H  0.12820015  0.81649722  0.75336879     0.18100
H1171       H  0.12720185  0.92931048  0.74617693     0.18100
F1172       F  0.06515616  0.87368321  0.74516197    -0.19600
C1173       C  0.40754523  0.87842791  0.75135029    -0.21100
C1174       C  0.40709894  0.91034485  0.74948262    -0.09100
C1175       C  0.37417737  0.90896596  0.74776993     0.29700
C1176       C  0.34262623  0.87633662  0.74798663    -0.21100
C1177       C  0.34312085  0.84442732  0.74986285    -0.09100
C1178       C  0.37604583  0.84584767  0.75155131     0.29700
F1179       F  0.37798467  0.81586143  0.75358635    -0.19700
H1180       H  0.43243125  0.87859135  0.75275130     0.18100
H1181       H  0.31770064  0.87610034  0.74660537     0.18100
F1182       F  0.37230587  0.93900280  0.74580441    -0.19600
C1183       C  0.12490384  0.59430530  0.75065079    -0.21100
C1184       C  0.09280976  0.59470311  0.75008289    -0.09100
C1185       C  0.09400410  0.62759843  0.74980424     0.29700
C1186       C  0.12654818  0.65915191  0.75000304    -0.21100
C1187       C  0.15864621  0.65879053  0.75051293    -0.09100
C1188       C  0.15748860  0.62590302  0.75088669     0.29700
F1189       F  0.18771768  0.62408865  0.75144581    -0.19700
H1190       H  0.12485864  0.56943128  0.75093013     0.18100
H1191       H  0.12653654  0.68399651  0.74971714     0.18100
F1192       F  0.06381828  0.62948729  0.74925106    -0.19600
C1193       C  0.25159447  0.77721525  0.65587430    -0.21100
C1194       C  0.25012257  0.74832710  0.64543741    -0.09100
C1195       C  0.24899540  0.72035457  0.65684038     0.29700
C1196       C  0.24968439  0.72159520  0.67825828    -0.21100
C1197       C  0.25065477  0.75024811  0.68867779    -0.09100
C1198       C  0.25145975  0.77805608  0.67729714     0.29700
F1199       F  0.25297917  0.80644716  0.68684855    -0.19700
H1200       H  0.25245207  0.79903338  0.64742428     0.18100
H1201       H  0.24899759  0.69987424  0.68673003     0.18100
F1202       F  0.24798491  0.69216515  0.64733010    -0.19600
C1203       C  0.25582248  0.52846473  0.67813861    -0.21100
C1204       C  0.25229338  0.99902566  0.68858733    -0.09100
C1205       C  0.24787809  0.96965421  0.67730345     0.29700
C1206       C  0.24719612  0.97024685  0.65588376    -0.21100
C1207       C  0.25139004  0.49984094  0.64541260    -0.09100
C1208       C  0.25594939  0.52933016  0.65672959     0.29700
F1209       F  0.25987051  0.55876427  0.64717507    -0.19700
H1210       H  0.25912483  0.55134327  0.68654922     0.18100
H1211       H  0.24344770  0.94717629  0.64751205     0.18100
F1212       F  0.24314598  0.94000174  0.68696981    -0.19600
C1213       C  0.40666303  0.77822569  0.58290711    -0.21100
C1214       C  0.40663626  0.74599935  0.58377716    -0.09100
C1215       C  0.37391047  0.71412662  0.58468519     0.29700
C1216       C  0.34211639  0.71472679  0.58469667    -0.21100
C1217       C  0.34215204  0.74696138  0.58381730    -0.09100
C1218       C  0.37487823  0.77882528  0.58290667     0.29700
F1219       F  0.37635952  0.81065175  0.58189909    -0.19700
H1220       H  0.43139810  0.80316069  0.58214401     0.18100
H1221       H  0.31737361  0.68979496  0.58543183     0.18100
F1222       F  0.37244152  0.68230043  0.58562803    -0.19600
C1223       C  0.12402855  0.77842592  0.58145835    -0.21100
C1224       C  0.09182227  0.74629938  0.58288500    -0.09100
C1225       C  0.09263580  0.71448094  0.58462441     0.29700
C1226       C  0.12498580  0.71501617  0.58485301    -0.21100
C1227       C  0.15719364  0.74713069  0.58339225    -0.09100
C1228       C  0.15638783  0.77896324  0.58169497     0.29700
F1229       F  0.18675973  0.81069558  0.58019474    -0.19700
H1230       H  0.12424638  0.80331106  0.58011907     0.18100
H1231       H  0.12475405  0.69012863  0.58622606     0.18100
F1232       F  0.06227588  0.68276759  0.58626131    -0.19600
C1233       C  0.51292752  0.77776452  0.65559110    -0.21100
C1234       C  0.00125111  0.74586535  0.64483594    -0.09100
C1235       C  0.99103542  0.71449855  0.65600651     0.29700
C1236       C  0.99266128  0.71530628  0.67742498    -0.21100
C1237       C  0.00362950  0.74707273  0.68803373    -0.09100
C1238       C  0.51384054  0.77835498  0.67699512     0.29700
F1239       F  0.52548191  0.80962098  0.68691467    -0.19700
H1240       H  0.52114183  0.80232002  0.64744019     0.18100
H1241       H  0.98459412  0.69094442  0.68577239     0.18100
F1242       F  0.97958924  0.68306974  0.64632349    -0.19600
C1243       C  0.37487043  0.53255983  0.58282699    -0.21100
C1244       C  0.34264509  0.50030191  0.58280515    -0.09100
C1245       C  0.34343450  0.96868810  0.58274433     0.29700
C1246       C  0.37578324  0.96922442  0.58266898    -0.21100
C1247       C  0.40805659  0.50121274  0.58258703    -0.09100
C1248       C  0.40724953  0.53313659  0.58269610     0.29700
F1249       F  0.43764069  0.56500087  0.58277166    -0.19700
H1250       H  0.37509380  0.55752522  0.58298505     0.18100
H1251       H  0.37552147  0.94423925  0.58265718     0.18100
F1252       F  0.31303567  0.93683230  0.58279580    -0.19600
C1253       C  0.09295013  0.96901416  0.58312358    -0.21100
C1254       C  0.09297949  0.50097372  0.58361899    -0.09100
C1255       C  0.12572726  0.53285106  0.58420152     0.29700
C1256       C  0.15749786  0.53222665  0.58443127    -0.21100
C1257       C  0.15744356  0.49996590  0.58409834    -0.09100
C1258       C  0.12475466  0.96843451  0.58332610     0.29700
F1259       F  0.12329927  0.93659769  0.58271884    -0.19700
H1260       H  0.06821406  0.94405781  0.58255514     0.18100
H1261       H  0.18224992  0.55718025  0.58485780     0.18100
F1262       F  0.12725269  0.56472870  0.58453279    -0.19600
C1263       C  0.99670242  0.97319574  0.67743988    -0.21100
C1264       C  0.00007721  0.50256756  0.68795918    -0.09100
C1265       C  0.50305474  0.53146091  0.67671482     0.29700
C1266       C  0.50334584  0.53089370  0.65529119    -0.21100
C1267       C  0.99990174  0.50125214  0.64471704    -0.09100
C1268       C  0.99619701  0.97231064  0.65602322     0.29700
F1269       F  0.99274530  0.94313126  0.64641314    -0.19700
H1270       H  0.99402413  0.95051382  0.68581694     0.18100
H1271       H  0.50594787  0.55357492  0.64695472     0.18100
F1272       F  0.50660717  0.56061583  0.68640891    -0.19600
C1273       C  0.26659480  0.73602427  0.84480654    -0.21100
C1274       C  0.25041055  0.75216917  0.85551175    -0.09100
C1275       C  0.23458826  0.76823021  0.84424879     0.29700
C1276       C  0.23502783  0.76797537  0.82281721    -0.21100
C1277       C  0.25121359  0.75181854  0.81211862    -0.09100
C1278       C  0.26706615  0.73579516  0.82339312     0.29700
F1279       F  0.28299383  0.71976297  0.81382867    -0.19700
H1280       H  0.27900524  0.72346201  0.85302223     0.18100
H1281       H  0.22262308  0.78052406  0.81458360     0.18100
F1282       F  0.21863331  0.78420275  0.85384513    -0.19600
C1283       C  0.27111465  0.48938499  0.84495535    -0.21100
C1284       C  0.24938478  0.49966220  0.85531767    -0.09100
C1285       C  0.22959042  0.01069184  0.84370579     0.29700
C1286       C  0.23064335  0.01045369  0.82230294    -0.21100
C1287       C  0.25153197  0.99915110  0.81191463    -0.09100
C1288       C  0.27231061  0.48931975  0.82354438     0.29700
F1289       F  0.29414733  0.47972583  0.81426198    -0.19700
H1290       H  0.28752300  0.48160305  0.85344860     0.18100
H1291       H  0.21480352  0.01901052  0.81382832     0.18100
F1292       F  0.20870046  0.02147180  0.85300377    -0.19600
C1293       C  0.37333083  0.59257782  0.91832292    -0.21100
C1294       C  0.34124676  0.59276786  0.91652760    -0.09100
C1295       C  0.34234611  0.62549133  0.91459968     0.29700
C1296       C  0.37485773  0.65712240  0.91452054    -0.21100
C1297       C  0.40694905  0.65693409  0.91635986    -0.09100
C1298       C  0.40583116  0.62420017  0.91827011     0.29700
F1299       F  0.43602957  0.62255984  0.92018960    -0.19700
H1300       H  0.37334475  0.56783644  0.91987204     0.18100
H1301       H  0.37484136  0.68186479  0.91298712     0.18100
F1302       F  0.31212863  0.62709619  0.91265161    -0.19600
C1303       C  0.09186979  0.87409452  0.91614226    -0.21100
C1304       C  0.09201900  0.84194425  0.91684608    -0.09100
C1305       C  0.12484164  0.84291956  0.91781674     0.29700
C1306       C  0.15657429  0.87534518  0.91800878    -0.21100
C1307       C  0.15643224  0.90749927  0.91723992    -0.09100
C1308       C  0.12359856  0.90651774  0.91631603     0.29700
F1309       F  0.12194953  0.93678847  0.91550976    -0.19700
H1310       H  0.06706797  0.87422529  0.91538753     0.18100
H1311       H  0.18137464  0.87521183  0.91874980     0.18100
F1312       F  0.12646723  0.81263821  0.91865854    -0.19600
C1313       C  0.02039434  0.73598652  0.84425354    -0.21100
C1314       C  0.00059794  0.74858058  0.85463408    -0.09100
C1315       C  0.48141530  0.76068138  0.84307462     0.29700
C1316       C  0.48226610  0.76024664  0.82166932    -0.21100
C1317       C  0.00215131  0.74777248  0.81127610    -0.09100
C1318       C  0.02128157  0.73558818  0.82283584     0.29700
F1319       F  0.04107104  0.72347529  0.81354583    -0.19700
H1320       H  0.03547794  0.72657677  0.85273072     0.18100
H1321       H  0.46715275  0.76964460  0.81321408     0.18100
F1322       F  0.46147753  0.77261711  0.85236423    -0.19600
C1323       C  0.37639146  0.90911445  0.91587430    -0.21100
C1324       C  0.40859385  0.90895611  0.91647387    -0.09100
C1325       C  0.40765453  0.87620321  0.91738692     0.29700
C1326       C  0.37523329  0.84453070  0.91759730    -0.21100
C1327       C  0.34303117  0.84465640  0.91696141    -0.09100
C1328       C  0.34393558  0.87740732  0.91612946     0.29700
F1329       F  0.31357931  0.87897820  0.91546940    -0.19700
H1330       H  0.37624935  0.93387859  0.91520066     0.18100
H1331       H  0.37541564  0.81978948  0.91830348     0.18100
F1332       F  0.43797267  0.87457384  0.91813976    -0.19600
C1333       C  0.15847599  0.62699703  0.91840550    -0.21100
C1334       C  0.15840769  0.65918653  0.91748729    -0.09100
C1335       C  0.12561670  0.65827249  0.91652504     0.29700
C1336       C  0.09385664  0.62590638  0.91641370    -0.21100
C1337       C  0.09389957  0.59371517  0.91723277    -0.09100
C1338       C  0.12667859  0.59459699  0.91829505     0.29700
F1339       F  0.12818903  0.56426395  0.91931189    -0.19700
H1340       H  0.18325213  0.62682406  0.91921757     0.18100
H1341       H  0.06910228  0.62611877  0.91559079     0.18100
F1342       F  0.12403554  0.68857042  0.91558977    -0.19600
C1343       C  0.51294905  0.98327294  0.82190504    -0.21100
C1344       C  0.99952201  0.50246337  0.81133538    -0.09100
C1345       C  0.98663857  0.52115543  0.82268933     0.29700
C1346       C  0.98734997  0.52088507  0.84411574    -0.21100
C1347       C  0.00082508  0.50202867  0.85470277    -0.09100
C1348       C  0.51359451  0.98287321  0.84331064     0.29700
F1349       F  0.52634914  0.96375936  0.85274988    -0.19700
H1350       H  0.52279132  0.96844733  0.81357429     0.18100
H1351       H  0.97737721  0.53561189  0.85243045     0.18100
F1352       F  0.97363490  0.53999960  0.81318454    -0.19600
C1353       C  0.27808177  0.74943303  0.01142472    -0.21100
C1354       C  0.25176500  0.75231181  0.02222587    -0.09100
C1355       C  0.22560589  0.75536675  0.01126326     0.29700
C1356       C  0.22595719  0.75565375  0.98985047    -0.21100
C1357       C  0.25189798  0.75215520  0.97898915    -0.09100
C1358       C  0.27798727  0.74891972  0.98999050     0.29700
F1359       F  0.30373398  0.74582443  0.98008752    -0.19700
H1360       H  0.29840493  0.74697931  0.01960361     0.18100
H1361       H  0.20562474  0.75819947  0.98175050     0.18100
F1362       F  0.20014580  0.75886429  0.02123356    -0.19600
C1363       C  0.28178612  0.90783457  0.08751475    -0.21100
C1364       C  0.25045851  0.90837917  0.08311443    -0.09100
C1365       C  0.21932750  0.87614480  0.07885252     0.29700
C1366       C  0.21966188  0.84422257  0.07922271    -0.21100
C1367       C  0.25096055  0.84368187  0.08369509    -0.09100
C1368       C  0.28214077  0.87593017  0.08783179     0.29700
F1369       F  0.31290708  0.87671712  0.09253986    -0.19700
H1370       H  0.30609863  0.93217276  0.09093253     0.18100
H1371       H  0.19536998  0.81986733  0.07579766     0.18100
F1372       F  0.18860773  0.87537159  0.07404049    -0.19600
C1373       C  0.28271143  0.62572275  0.08472483    -0.21100
C1374       C  0.25052701  0.59347801  0.08386617    -0.09100
C1375       C  0.21855034  0.59422467  0.08299561     0.29700
C1376       C  0.21899542  0.62651141  0.08296365    -0.21100
C1377       C  0.25116458  0.65876060  0.08381406    -0.09100
C1378       C  0.28315500  0.65802494  0.08472669     0.29700
F1379       F  0.31496664  0.68841917  0.08562443    -0.19700
H1380       H  0.30772559  0.62601502  0.08543176     0.18100
H1381       H  0.19397017  0.62619378  0.08225304     0.18100
F1382       F  0.18673716  0.56384082  0.08206372    -0.19600
C1383       C  0.27957555  0.00487814  0.01087473    -0.21100
C1384       C  0.25033679  0.50232834  0.02192126    -0.09100
C1385       C  0.22148014  0.50039527  0.01103879     0.29700
C1386       C  0.22162997  0.50074528  0.98961033    -0.21100
C1387       C  0.25011018  0.50225811  0.97867726    -0.09100
C1388       C  0.27934243  0.00439764  0.98944777     0.29700
F1389       F  0.30777941  0.00688656  0.97935434    -0.19700
H1390       H  0.30219189  0.00666733  0.01890592     0.18100
H1391       H  0.19914410  0.49918410  0.98154138     0.18100
F1392       F  0.19334756  0.49870270  0.02106969    -0.19600
C1393       C  0.53006190  0.76164055  0.01027046    -0.21100
C1394       C  0.99824861  0.75031741  0.02111660    -0.09100
C1395       C  0.96655507  0.73883356  0.01000163     0.29700
C1396       C  0.96703608  0.73926114  0.98855964    -0.21100
C1397       C  0.99878250  0.75017271  0.97788111    -0.09100
C1398       C  0.53031889  0.76127936  0.98885889     0.29700
F1399       F  0.56153186  0.77270527  0.97885511    -0.19700
H1400       H  0.55483510  0.77064049  0.01836297     0.18100
H1401       H  0.94246780  0.73043772  0.98025994     0.18100
F1402       F  0.93511626  0.72730409  0.01975479    -0.19600
C1403       C  0.03097978  0.90825871  0.08328878    -0.21100
C1404       C  0.49861293  0.90810781  0.08339790    -0.09100
C1405       C  0.46675346  0.87532016  0.08345023     0.29700
C1406       C  0.46748419  0.84362468  0.08333508    -0.21100
C1407       C  0.49983561  0.84375751  0.08316036    -0.09100
C1408       C  0.03170944  0.87654375  0.08316314     0.29700
F1409       F  0.06366880  0.87815340  0.08302937    -0.19700
H1410       H  0.05592321  0.93303776  0.08324085     0.18100
H1411       H  0.44252797  0.81885957  0.08336714     0.18100
F1412       F  0.43478126  0.87368103  0.08362432    -0.19600
C1413       C  0.03040513  0.62503154  0.08109192    -0.21100
C1414       C  0.49817167  0.59292959  0.08260677    -0.09100
C1415       C  0.46640364  0.59395178  0.08421980     0.29700
C1416       C  0.46711651  0.62637796  0.08425396    -0.21100
C1417       C  0.49935743  0.65847745  0.08273688    -0.09100
C1418       C  0.03112019  0.65745436  0.08115968     0.29700
F1419       F  0.06296317  0.68768577  0.07959663    -0.19700
H1420       H  0.05527296  0.62512658  0.07983700     0.18100
H1421       H  0.44225552  0.62629368  0.08553284     0.18100
F1422       F  0.43456403  0.56372723  0.08584438    -0.19600
C1423       C  0.47291809  0.00186829  0.98857895    -0.21100
C1424       C  0.99934225  0.49932007  0.97812098    -0.09100
C1425       C  0.02471202  0.49548215  0.98947339     0.29700
C1426       C  0.02392992  0.49565371  0.01088113    -0.21100
C1427       C  0.99739693  0.49871607  0.02132780    -0.09100
C1428       C  0.47162009  0.00118465  0.00999064     0.29700
F1429       F  0.44559592  0.00423435  0.01958275    -0.19700
H1430       H  0.45284489  0.00438597  0.98016051     0.18100
H1431       H  0.04396836  0.49311468  0.01932958     0.18100
F1432       F  0.05076395  0.49239118  0.97994965    -0.19600
C1433       C  0.23463048  0.71422885  0.48942228    -0.21100
C1434       C  0.24951501  0.74641118  0.47860082    -0.09100
C1435       C  0.26429005  0.77833273  0.48974491     0.29700
C1436       C  0.26411264  0.77785432  0.51115537    -0.21100
C1437       C  0.24920175  0.74569716  0.52198593    -0.09100
C1438       C  0.23440298  0.71375387  0.51085742     0.29700
F1439       F  0.21977756  0.68198980  0.52058772    -0.19700
H1440       H  0.22306520  0.68925345  0.48128879     0.18100
H1441       H  0.27563096  0.80284849  0.51926741     0.18100
F1442       F  0.27883910  0.81012831  0.48005438    -0.19600
C1443       C  0.23066918  0.97010612  0.48925898    -0.21100
C1444       C  0.25005426  0.50223715  0.47864007    -0.09100
C1445       C  0.26902209  0.53380835  0.48992938     0.29700
C1446       C  0.26852685  0.53297865  0.51134751    -0.21100
C1447       C  0.24919267  0.50080307  0.52198703    -0.09100
C1448       C  0.23006602  0.96938191  0.51066811     0.29700
F1449       F  0.21044153  0.93775332  0.52024984    -0.19700
H1450       H  0.21555362  0.94539951  0.48102642     0.18100
H1451       H  0.28354549  0.55766219  0.51961515     0.18100
F1452       F  0.28838312  0.56550230  0.48036894    -0.19600
C1453       C  0.00504170  0.77730997  0.48889321    -0.21100
C1454       C  0.99758727  0.74649777  0.47804604    -0.09100
C1455       C  0.49044185  0.71588158  0.48912040     0.29700
C1456       C  0.49066303  0.71623135  0.51053670    -0.21100
C1457       C  0.99819723  0.74704339  0.52138243    -0.09100
C1458       C  0.00533116  0.77767645  0.51032378     0.29700
F1459       F  0.01203315  0.80785418  0.52014608    -0.19700
H1460       H  0.01046814  0.80119521  0.48077538     0.18100
H1461       H  0.48533022  0.69237303  0.51865104     0.18100
F1462       F  0.48392255  0.68574112  0.47933030    -0.19600
C1463       C  0.40560948  0.77861716  0.41300926    -0.21100
C1464       C  0.40597626  0.74671694  0.41515816    -0.09100
C1465       C  0.37342812  0.71483211  0.41707951     0.29700
C1466       C  0.34148318  0.71513422  0.41713702    -0.21100
C1467       C  0.34113114  0.74706725  0.41528636    -0.09100
C1468       C  0.37363006  0.77890544  0.41302923     0.29700
F1469       F  0.37467793  0.81038266  0.41076049    -0.19700
H1470       H  0.43017619  0.80352140  0.41133958     0.18100
H1471       H  0.31693116  0.69022311  0.41883043     0.18100
F1472       F  0.37227966  0.68327408  0.41911686    -0.19600
C1473       C  0.09168758  0.71601758  0.41244549    -0.21100
C1474       C  0.09120904  0.74707537  0.41762836    -0.09100
C1475       C  0.12323840  0.77748579  0.42310101     0.29700
C1476       C  0.15498247  0.77677867  0.42306726    -0.21100
C1477       C  0.15548024  0.74580167  0.41773878    -0.09100
C1478       C  0.12341301  0.71528639  0.41246663     0.29700
F1479       F  0.12271194  0.68495671  0.40683949    -0.19700
H1480       H  0.06746568  0.69225754  0.40810165     0.18100
H1481       H  0.17924558  0.80054047  0.42735818     0.18100
F1482       F  0.12395761  0.80781503  0.42873862    -0.19600
C1483       C  0.51919004  0.53302457  0.51052870    -0.21100
C1484       C  0.00041991  0.50087987  0.52126172    -0.09100
C1485       C  0.98112948  0.96916972  0.51010464     0.29700
C1486       C  0.98108151  0.96979827  0.48868921    -0.21100
C1487       C  0.00013738  0.50206594  0.47790463    -0.09100
C1488       C  0.51914008  0.53373061  0.48911183     0.29700
F1489       F  0.53796741  0.56542342  0.47947012    -0.19700
H1490       H  0.53408268  0.55780357  0.51872190     0.18100
H1491       H  0.96613209  0.94499853  0.48052249     0.18100
F1492       F  0.96229568  0.93749750  0.51976737    -0.19600
C1493       C  0.37527346  0.96994155  0.41361309    -0.21100
C1494       C  0.40749729  0.50224220  0.41606060    -0.09100
C1495       C  0.40661930  0.53392016  0.41837361     0.29700
C1496       C  0.37424726  0.53335430  0.41852789    -0.21100
C1497       C  0.34207294  0.50133662  0.41641027    -0.09100
C1498       C  0.34289705  0.96940385  0.41372620     0.29700
F1499       F  0.31258094  0.93787805  0.41129842    -0.19700
H1500       H  0.37511451  0.94517766  0.41167642     0.18100
H1501       H  0.37443032  0.55813911  0.42041101     0.18100
F1502       F  0.43692262  0.56548093  0.42072279    -0.19600
C1503       C  0.12557913  0.97027951  0.41756649    -0.21100
C1504       C  0.15772081  0.50271983  0.41708757    -0.09100
C1505       C  0.15681474  0.53456317  0.41656765     0.29700
C1506       C  0.12436961  0.53384850  0.41640129    -0.21100
C1507       C  0.09217701  0.50152452  0.41675152    -0.09100
C1508       C  0.09313260  0.96953293  0.41742702     0.29700
F1509       F  0.06281730  0.93761797  0.41785208    -0.19700
H1510       H  0.12543010  0.94535668  0.41795466     0.18100
H1511       H  0.12452039  0.55877083  0.41595119     0.18100
F1512       F  0.18715634  0.56646034  0.41618555    -0.19600
C1513       C  0.21833480  0.72647263  0.17785392    -0.21100
C1514       C  0.24879054  0.75038404  0.18878896    -0.09100
C1515       C  0.27948487  0.77408765  0.17784819     0.29700
C1516       C  0.27955708  0.77370163  0.15644173    -0.21100
C1517       C  0.24911614  0.74984030  0.14548997    -0.09100
C1518       C  0.21842487  0.72603419  0.15642896     0.29700
F1519       F  0.18868144  0.70186654  0.14650265    -0.19700
H1520       H  0.19447343  0.70773276  0.18590651     0.18100
H1521       H  0.30344742  0.79244403  0.14841624     0.18100
F1522       F  0.30927875  0.79815381  0.18777036    -0.19600
C1523       C  0.21794729  0.72136745  0.32272473    -0.21100
C1524       C  0.24718891  0.74807023  0.31209000    -0.09100
C1525       C  0.27616701  0.77404964  0.32327449     0.29700
C1526       C  0.27561396  0.77341387  0.34466877    -0.21100
C1527       C  0.24664926  0.74646860  0.35528057    -0.09100
C1528       C  0.21779210  0.72026238  0.34415382     0.29700
F1529       F  0.18911772  0.69414207  0.35397272    -0.19700
H1530       H  0.19537034  0.70106433  0.31442876     0.18100
H1531       H  0.29812597  0.79378794  0.35297768     0.18100
F1532       F  0.30476328  0.80047923  0.31357651    -0.19600
C1533       C  0.28099710  0.90708035  0.25156603    -0.21100
C1534       C  0.24900483  0.90758957  0.25081454    -0.09100
C1535       C  0.21681625  0.87507907  0.25015838     0.29700
C1536       C  0.21688188  0.84302680  0.25020881    -0.21100
C1537       C  0.24887551  0.84251670  0.25089578    -0.09100
C1538       C  0.28106287  0.87502430  0.25160381     0.29700
F1539       F  0.31272682  0.87604245  0.25233298    -0.19700
H1540       H  0.30616042  0.93160304  0.25209518     0.18100
H1541       H  0.19171795  0.81850728  0.24965817     0.18100
F1542       F  0.18514712  0.87405187  0.24944566    -0.19600
C1543       C  0.21773415  0.59282069  0.25326241    -0.21100
C1544       C  0.24974197  0.59300735  0.24990289    -0.09100
C1545       C  0.28087930  0.62561471  0.24646734     0.29700
C1546       C  0.27985430  0.65716052  0.24656891    -0.21100
C1547       C  0.24788225  0.65698642  0.25000121    -0.09100
C1548       C  0.21669774  0.62436593  0.25332680     0.29700
F1549       F  0.18524324  0.62282810  0.25694048    -0.19700
H1550       H  0.19335031  0.56815940  0.25600037     0.18100
H1551       H  0.30423599  0.68182996  0.24384511     0.18100
F1552       F  0.31232669  0.62716378  0.24282455    -0.19600
C1553       C  0.21954948  0.99128315  0.17774495    -0.21100
C1554       C  0.25090049  0.00070812  0.18860260    -0.09100
C1555       C  0.28214858  0.51007558  0.17755802     0.29700
C1556       C  0.28178285  0.51011071  0.15612950    -0.21100
C1557       C  0.25052203  0.00081123  0.14524750    -0.09100
C1558       C  0.21926396  0.99136646  0.15632940     0.29700
F1559       F  0.18846679  0.98274838  0.14654639    -0.19700
H1560       H  0.19512760  0.98404568  0.18584476     0.18100
H1561       H  0.30610764  0.51713315  0.14797573     0.18100
F1562       F  0.31298780  0.51872751  0.18730661    -0.19600
C1563       C  0.22107766  0.97431380  0.32282068    -0.21100
C1564       C  0.24952826  0.00154014  0.31198932    -0.09100
C1565       C  0.27672226  0.53016885  0.32298799     0.29700
C1566       C  0.27616579  0.53022478  0.34440835    -0.21100
C1567       C  0.24917927  0.50158182  0.35525133    -0.09100
C1568       C  0.22090980  0.97401373  0.34424672     0.29700
F1569       F  0.19295700  0.94724740  0.35419213    -0.19700
H1570       H  0.19913809  0.95295183  0.31468316     0.18100
H1571       H  0.29714951  0.55251202  0.35253445     0.18100
F1572       F  0.30323434  0.55833431  0.31303860    -0.19600
C1573       C  0.03224573  0.76391184  0.17719624    -0.21100
C1574       C  0.00021216  0.75087144  0.18804395    -0.09100
C1575       C  0.46838058  0.73803782  0.17693352     0.29700
C1576       C  0.46881248  0.73831060  0.15551768    -0.21100
C1577       C  0.00083608  0.75136865  0.14466596    -0.09100
C1578       C  0.03267483  0.76418835  0.15576872     0.29700
F1579       F  0.06426841  0.77678203  0.14601644    -0.19700
H1580       H  0.05715009  0.77387176  0.18530958     0.18100
H1581       H  0.44389792  0.72834295  0.14741400     0.18100
F1582       F  0.43676266  0.72539015  0.18666600    -0.19600
C1583       C  0.47449258  0.72133200  0.32191551    -0.21100
C1584       C  0.00155664  0.75041054  0.31142264    -0.09100
C1585       C  0.02835516  0.77852759  0.32270569     0.29700
C1586       C  0.02764367  0.77763353  0.34413705    -0.21100
C1587       C  0.00070704  0.74839630  0.35465465    -0.09100
C1588       C  0.47421368  0.72004655  0.34331710     0.29700
F1589       F  0.44757516  0.69141857  0.35286900    -0.19700
H1590       H  0.45369612  0.69932865  0.31350537     0.18100
H1591       H  0.04834869  0.79974592  0.35252207     0.18100
F1592       F  0.05467823  0.80727382  0.31305757    -0.19600
C1593       C  0.46939714  0.87656917  0.24827395    -0.21100
C1594       C  0.50155814  0.90881752  0.24940652    -0.09100
C1595       C  0.03349874  0.90805757  0.25058715     0.29700
C1596       C  0.03299851  0.87571411  0.25066050    -0.21100
C1597       C  0.00079894  0.84346527  0.24959971    -0.09100
C1598       C  0.46889507  0.84426063  0.24835935     0.29700
F1599       F  0.43710717  0.81390583  0.24710657    -0.19700
H1600       H  0.44439354  0.87626060  0.24730063     0.18100
H1601       H  0.05797754  0.87597213  0.25163684     0.18100
F1602       F  0.06527359  0.93844656  0.25177483    -0.19600
C1603       C  0.46874084  0.62645496  0.25298386    -0.21100
C1604       C  0.00070468  0.65838057  0.24989760    -0.09100
C1605       C  0.03210346  0.65715856  0.24690796     0.29700
C1606       C  0.03134112  0.62472527  0.24701337    -0.21100
C1607       C  0.49940027  0.59278316  0.25007331    -0.09100
C1608       C  0.46798628  0.59398634  0.25312041     0.29700
F1609       F  0.43655007  0.56393746  0.25641591    -0.19700
H1610       H  0.44417699  0.62657401  0.25543055     0.18100
H1611       H  0.05593533  0.62467340  0.24455721     0.18100
F1612       F  0.06355797  0.68718186  0.24360849    -0.19600
C1613       C  0.03090472  0.52142362  0.17704973    -0.21100
C1614       C  0.99924147  0.50091445  0.18796138    -0.09100
C1615       C  0.46767453  0.98092633  0.17694172     0.29700
C1616       C  0.46785393  0.98140050  0.15553136    -0.21100
C1617       C  0.99934766  0.50161217  0.14461443    -0.09100
C1618       C  0.03107081  0.52189929  0.15562795     0.29700
F1619       F  0.06228329  0.54244380  0.14579429    -0.19700
H1620       H  0.05567481  0.53735721  0.18511144     0.18100
H1621       H  0.44307541  0.96543743  0.14748444     0.18100
F1622       F  0.43646425  0.96031405  0.18675984    -0.19600
C1623       C  0.47280827  0.97321855  0.34381786    -0.21100
C1624       C  0.00077162  0.50117516  0.35454060    -0.09100
C1625       C  0.02873072  0.52866036  0.34347613     0.29700
C1626       C  0.02880858  0.52788783  0.32205581    -0.21100
C1627       C  0.00072211  0.50015091  0.31131682    -0.09100
C1628       C  0.47248629  0.97291522  0.32240005     0.29700
F1629       F  0.44474087  0.94578165  0.31255693    -0.19700
H1630       H  0.45075044  0.95206157  0.35202131     0.18100
H1631       H  0.05060423  0.54931071  0.31384400     0.18100
F1632       F  0.05633850  0.55590017  0.35333786    -0.19600
O1633       O  0.52969546  0.47215139  0.24984729    -0.71500
O1634       O  0.52849871  0.05861239  0.24935727    -0.71800
O1635       O  0.52941760  0.01593851  0.27870329    -0.71600
O1636       O  0.52871991  0.01500785  0.22046210    -0.71600
O1637       O  0.97104689  0.48680422  0.22077890    -0.71600
O1638       O  0.97178044  0.48493092  0.27886207    -0.71600
O1639       O  0.97099909  0.02938942  0.25049947    -0.71600
O1640       O  0.97218250  0.44279825  0.24913860    -0.71700
V1641       V  0.52800109  0.01485232  0.24958544     1.35200
V1642       V  0.97258117  0.48655607  0.24981981     1.35200
C1643       C  0.00117918  0.44266127  0.24947234     0.77700
C1644       C  0.99958271  0.05884740  0.24997978     0.77700
C1645       C  0.50071766  0.00029815  0.28871124     0.77600
C1646       C  0.49977119  0.00095387  0.21066048     0.77600
O1647       O  0.52973585  0.22182739  0.24988264    -0.71500
O1648       O  0.52967512  0.30898484  0.24924637    -0.71800
O1649       O  0.53038527  0.26632054  0.27868735    -0.71600
O1650       O  0.52910293  0.26463071  0.22047641    -0.71600
O1651       O  0.97159083  0.23706925  0.22090875    -0.71600
O1652       O  0.97281611  0.23597014  0.27905346    -0.71600
O1653       O  0.97217972  0.28014274  0.25043574    -0.71600
O1654       O  0.97219942  0.19307082  0.24953836    -0.71700
V1655       V  0.52862466  0.26487393  0.24958328     1.35200
V1656       V  0.97332016  0.23715987  0.24997877     1.35200
C1657       C  0.50097064  0.19252498  0.24969323     0.77700
C1658       C  0.50086627  0.30946682  0.24980408     0.77700
C1659       C  0.50178762  0.25109184  0.28879095     0.77600
C1660       C  0.50011759  0.25078887  0.21072455     0.77600
O1661       O  0.77856543  0.47118954  0.25155872    -0.71500
O1662       O  0.77876980  0.05854742  0.24945996    -0.71800
O1663       O  0.77845754  0.01636938  0.27949096    -0.71600
O1664       O  0.77911527  0.01364378  0.22141125    -0.71600
O1665       O  0.72175937  0.48759127  0.22121335    -0.71600
O1666       O  0.72113513  0.48532712  0.27944112    -0.71600
O1667       O  0.72127743  0.02987851  0.25078346    -0.71600
O1668       O  0.72112602  0.44286850  0.24975285    -0.71700
V1669       V  0.77759689  0.01434471  0.25044846     1.35200
V1670       V  0.72246885  0.48698643  0.25033206     1.35200
C1671       C  0.74966706  0.44199847  0.25072709     0.77700
C1672       C  0.74999959  0.05913038  0.25004803     0.77700
C1673       C  0.74984413  0.50122925  0.28940846     0.77600
C1674       C  0.75064576  0.50060667  0.21137086     0.77600
O1675       O  0.77638360  0.22010472  0.25031299    -0.71500
O1676       O  0.77701111  0.30739434  0.25077174    -0.71800
O1677       O  0.77629842  0.26332401  0.27960956    -0.71600
O1678       O  0.77696228  0.26431905  0.22150058    -0.71600
O1679       O  0.71939967  0.23548937  0.22124495    -0.71600
O1680       O  0.71871034  0.23474715  0.27945818    -0.71600
O1681       O  0.71948933  0.27913783  0.25045789    -0.71600
O1682       O  0.71884024  0.19150875  0.25028713    -0.71700
V1683       V  0.77551387  0.26318817  0.25054863     1.35200
V1684       V  0.72019550  0.23579583  0.25036064     1.35200
C1685       C  0.74758254  0.19087127  0.25025989     0.77700
C1686       C  0.74845741  0.30830781  0.25067402     0.77700
C1687       C  0.74742644  0.24892948  0.28945873     0.77600
C1688       C  0.74833374  0.25006929  0.21143038     0.77600
O1689       O  0.98555023  0.47327356  0.44531627    -0.71500
O1690       O  0.98493689  0.47280033  0.38715225    -0.71800
O1691       O  0.52876875  0.47282603  0.41617322    -0.71600
O1692       O  0.94182974  0.47332093  0.41631825    -0.71600
O1693       O  0.97081425  0.03046834  0.41551925    -0.71600
O1694       O  0.55771834  0.03005407  0.41667910    -0.71600
O1695       O  0.51527596  0.03001262  0.38699380    -0.71600
O1696       O  0.51360850  0.03048879  0.44515877    -0.71700
V1697       V  0.98583711  0.47416549  0.41623228     1.35200
V1698       V  0.51373725  0.02913910  0.41608161     1.35200
C1699       C  0.49961314  0.00184826  0.45521623     0.77700
C1700       C  0.50041435  0.00116805  0.37716826     0.77700
C1701       C  0.55813498  0.00125961  0.41659379     0.77600
C1702       C  0.94141769  0.00184060  0.41586955     0.77600
O1703       O  0.51095205  0.27592770  0.44553799    -0.71500
O1704       O  0.51607550  0.27697943  0.38738851    -0.71800
O1705       O  0.96979801  0.27639795  0.41495292    -0.71600
O1706       O  0.55698663  0.27638206  0.41801634    -0.71600
O1707       O  0.52831107  0.21902674  0.41582659    -0.71600
O1708       O  0.94120520  0.21899241  0.41643872    -0.71600
O1709       O  0.98445129  0.21956590  0.38706149    -0.71600
O1710       O  0.98507092  0.21854298  0.44521555    -0.71700
V1711       V  0.51290497  0.27535402  0.41645921     1.35200
V1712       V  0.98531140  0.22013973  0.41614238     1.35200
C1713       C  0.49780644  0.24703853  0.45533772     0.77700
C1714       C  0.50055436  0.24843260  0.37728841     0.77700
C1715       C  0.94051117  0.24760762  0.41549483     0.77600
C1716       C  0.55754809  0.24766749  0.41719425     0.77600
O1717       O  0.77867057  0.47290231  0.41638845    -0.71500
O1718       O  0.69199835  0.47380897  0.41752984    -0.71800
O1719       O  0.73421441  0.47312032  0.38791122    -0.71600
O1720       O  0.73617089  0.47354942  0.44604139    -0.71600
O1721       O  0.76426836  0.03087758  0.44584016    -0.71600
O1722       O  0.76499083  0.03044371  0.38765725    -0.71600
O1723       O  0.72118618  0.03113643  0.41647625    -0.71600
O1724       O  0.80787145  0.03014079  0.41702079    -0.71700
V1725       V  0.73586091  0.47446199  0.41697100     1.35200
V1726       V  0.76400291  0.02954919  0.41675314     1.35200
C1727       C  0.80809644  0.00124683  0.41646400     0.77700
C1728       C  0.69175201  0.00256274  0.41710220     0.77700
C1729       C  0.74925148  0.00162687  0.37783255     0.77600
C1730       C  0.75038802  0.00221583  0.45587541     0.77600
O1731       O  0.77813925  0.21854399  0.41584533    -0.71500
O1732       O  0.69047114  0.21761937  0.41761369    -0.71800
O1733       O  0.73273827  0.21812107  0.38769491    -0.71600
O1734       O  0.73553810  0.21793392  0.44587344    -0.71600
O1735       O  0.76315942  0.27538006  0.44591317    -0.71600
O1736       O  0.76228397  0.27566959  0.38778115    -0.71600
O1737       O  0.71888026  0.27511274  0.41727679    -0.71600
O1738       O  0.80645874  0.27600265  0.41639475    -0.71700
V1739       V  0.73480594  0.21915536  0.41677241     1.35200
V1740       V  0.76211706  0.27441317  0.41684428     1.35200
C1741       C  0.80732469  0.24745989  0.41582098     0.77700
C1742       C  0.68970955  0.24624276  0.41758215     0.77700
C1743       C  0.74717323  0.24695843  0.37784065     0.77600
C1744       C  0.74955946  0.24664271  0.45586270     0.77600
O1745       O  0.52673598  0.05830952  0.08163280    -0.71500
O1746       O  0.52669721  0.47102796  0.08369443    -0.71800
O1747       O  0.52656902  0.01282140  0.05368588    -0.71600
O1748       O  0.52759906  0.01675816  0.11174428    -0.71600
O1749       O  0.96993224  0.48570285  0.11216771    -0.71600
O1750       O  0.96879240  0.48661500  0.05394621    -0.71600
O1751       O  0.96919361  0.44248031  0.08264586    -0.71600
O1752       O  0.96928757  0.02943706  0.08341416    -0.71700
V1753       V  0.52592177  0.01430110  0.08271325     1.35200
V1754       V  0.97042039  0.48664003  0.08305916     1.35200
C1755       C  0.49789953  0.05875432  0.08245030     0.77700
C1756       C  0.49788060  0.44179076  0.08325156     0.77700
C1757       C  0.49767430  0.99929066  0.04390242     0.77600
C1758       C  0.49909177  0.00152610  0.12191438     0.77600
O1759       O  0.52756327  0.30857421  0.08271618    -0.71500
O1760       O  0.52731126  0.22138216  0.08254990    -0.71800
O1761       O  0.52672616  0.26464518  0.05356969    -0.71600
O1762       O  0.52810270  0.26512091  0.11172375    -0.71600
O1763       O  0.97057465  0.23632448  0.11218586    -0.71600
O1764       O  0.96917624  0.23651703  0.05398255    -0.71600
O1765       O  0.96978500  0.19271583  0.08282916    -0.71600
O1766       O  0.97004598  0.28004286  0.08336209    -0.71700
V1767       V  0.52629640  0.26438960  0.08264850     1.35200
V1768       V  0.97099791  0.23693868  0.08308223     1.35200
C1769       C  0.99887841  0.30927771  0.08311022     0.77700
C1770       C  0.99856012  0.19212275  0.08260545     0.77700
C1771       C  0.99774080  0.25051295  0.04382527     0.77600
C1772       C  0.49958416  0.25073284  0.12192076     0.77600
O1773       O  0.72171289  0.48780513  0.05452996    -0.71500
O1774       O  0.72173332  0.48589447  0.11265343    -0.71800
O1775       O  0.72208276  0.03031110  0.08407093    -0.71600
O1776       O  0.72154925  0.44305599  0.08295260    -0.71600
O1777       O  0.77907400  0.47150290  0.08379518    -0.71600
O1778       O  0.77959621  0.05903130  0.08331902    -0.71600
O1779       O  0.77948644  0.01556055  0.11263481    -0.71600
O1780       O  0.77957332  0.01506510  0.05438317    -0.71700
V1781       V  0.72285331  0.48726343  0.08358281     1.35200
V1782       V  0.77842893  0.01479872  0.08351276     1.35200
C1783       C  0.75076492  0.00179607  0.04447688     0.77700
C1784       C  0.75064932  0.00076271  0.12255042     0.77700
C1785       C  0.75079520  0.05958401  0.08370863     0.77600
C1786       C  0.75021329  0.44230348  0.08330260     0.77600
O1787       O  0.77921864  0.30888570  0.08357285    -0.71500
O1788       O  0.77948943  0.22200897  0.08443195    -0.71800
O1789       O  0.77986857  0.26491924  0.05485035    -0.71600
O1790       O  0.77854572  0.26570379  0.11308761    -0.71600
O1791       O  0.72104182  0.23494811  0.11261368    -0.71600
O1792       O  0.72230595  0.23826519  0.05453872    -0.71600
O1793       O  0.72203030  0.19309874  0.08280076    -0.71600
O1794       O  0.72167682  0.28018548  0.08428755    -0.71700
V1795       V  0.77817096  0.26483824  0.08397361     1.35200
V1796       V  0.72286504  0.23715582  0.08357355     1.35200
C1797       C  0.75048038  0.30947126  0.08396590     0.77700
C1798       C  0.75089106  0.19268247  0.08358815     0.77700
C1799       C  0.75123526  0.25187405  0.04478555     0.77600
C1800       C  0.74952260  0.25003979  0.12279853     0.77600
O1801       O  0.53081102  0.05903588  0.91723884    -0.71500
O1802       O  0.94306783  0.47239040  0.91592361    -0.71800
O1803       O  0.98593693  0.01423861  0.94562899    -0.71600
O1804       O  0.98786806  0.01679442  0.88749914    -0.71600
O1805       O  0.51501406  0.48694935  0.88729964    -0.71600
O1806       O  0.51570321  0.48700392  0.94549641    -0.71600
O1807       O  0.97177549  0.44358807  0.91656236    -0.71600
O1808       O  0.55937580  0.03010647  0.91624043    -0.71700
V1809       V  0.98758974  0.01505618  0.91656830     1.35200
V1810       V  0.51485315  0.48755568  0.91640560     1.35200
C1811       C  0.56009065  0.05944943  0.91684295     0.77700
C1812       C  0.94248257  0.44307818  0.91628130     0.77700
C1813       C  0.50066983  0.00011109  0.95549022     0.77600
C1814       C  0.50142538  0.00172830  0.87742541     0.77600
O1815       O  0.55744874  0.27876581  0.91629083    -0.71500
O1816       O  0.97042607  0.19155610  0.91711468    -0.71800
O1817       O  0.51379048  0.23417168  0.88758608    -0.71600
O1818       O  0.51435519  0.23640449  0.94574838    -0.71600
O1819       O  0.98313643  0.26273903  0.94520660    -0.71600
O1820       O  0.98649683  0.26436871  0.88704496    -0.71600
O1821       O  0.94150116  0.22007719  0.91536684    -0.71600
O1822       O  0.52849744  0.30732933  0.91688602    -0.71700
V1823       V  0.51341051  0.23573742  0.91666807     1.35200
V1824       V  0.98550108  0.26311929  0.91613108     1.35200
C1825       C  0.55790150  0.30798876  0.91671225     0.77700
C1826       C  0.94105651  0.19086638  0.91622060     0.77700
C1827       C  0.50031172  0.24917170  0.87734829     0.77600
C1828       C  0.49859535  0.24969200  0.95536936     0.77600
O1829       O  0.80689230  0.02946938  0.91651515    -0.71500
O1830       O  0.71964879  0.44239635  0.91780276    -0.71800
O1831       O  0.76271415  0.48505585  0.88815091    -0.71600
O1832       O  0.76418086  0.48731709  0.94626751    -0.71600
O1833       O  0.73398734  0.01431658  0.94599763    -0.71600
O1834       O  0.73483574  0.01437226  0.88775273    -0.71600
O1835       O  0.69075298  0.47099739  0.91684696    -0.71600
O1836       O  0.77793412  0.05803256  0.91695741    -0.71700
V1837       V  0.76268851  0.48659330  0.91721033     1.35200
V1838       V  0.73498444  0.01384116  0.91687511     1.35200
C1839       C  0.80731121  0.05869684  0.91663565     0.77700
C1840       C  0.69026027  0.44175710  0.91735392     0.77700
C1841       C  0.74893988  0.99954454  0.87795485     0.77600
C1842       C  0.74956267  0.00119225  0.95600470     0.77600
O1843       O  0.77956529  0.30976910  0.91767272    -0.71500
O1844       O  0.69293366  0.22226739  0.91699010    -0.71800
O1845       O  0.73577314  0.26523294  0.94645105    -0.71600
O1846       O  0.73669938  0.26666658  0.88823814    -0.71600
O1847       O  0.76486785  0.23732248  0.88811343    -0.71600
O1848       O  0.76631737  0.23824656  0.94627645    -0.71600
O1849       O  0.72205229  0.19387955  0.91757486    -0.71600
O1850       O  0.80879810  0.28149939  0.91682997    -0.71700
V1851       V  0.73680800  0.26543379  0.91734100     1.35200
V1852       V  0.76492143  0.23825776  0.91720201     1.35200
C1853       C  0.80902671  0.31063794  0.91721656     0.77700
C1854       C  0.69259322  0.19309513  0.91726549     0.77700
C1855       C  0.75123899  0.25182579  0.95630358     0.77600
C1856       C  0.75082417  0.25210877  0.87820243     0.77600
O1857       O  0.51557172  0.02971807  0.55388745    -0.71500
O1858       O  0.51378661  0.03007484  0.61208378    -0.71800
O1859       O  0.55830381  0.02992038  0.58362270    -0.71600
O1860       O  0.97130091  0.03000730  0.58235361    -0.71600
O1861       O  0.94251049  0.47235981  0.58326704    -0.71600
O1862       O  0.52968033  0.47224604  0.58286988    -0.71600
O1863       O  0.98652748  0.47232110  0.61216379    -0.71600
O1864       O  0.98565193  0.47216232  0.55398916    -0.71700
V1865       V  0.51420827  0.02881332  0.58298742     1.35200
V1866       V  0.98663711  0.47337147  0.58307017     1.35200
C1867       C  0.50045755  0.00091650  0.54399637     0.77700
C1868       C  0.50008284  0.00136926  0.62208549     0.77700
C1869       C  0.55892923  0.00123793  0.58335987     0.77600
C1870       C  0.94198498  0.00135576  0.58276940     0.77600
O1871       O  0.94107934  0.21693898  0.58340788    -0.71500
O1872       O  0.52824814  0.21718928  0.58260973    -0.71800
O1873       O  0.98528181  0.21673926  0.61210042    -0.71600
O1874       O  0.98436263  0.21760057  0.55386820    -0.71600
O1875       O  0.51247381  0.27508155  0.55414927    -0.71600
O1876       O  0.51410622  0.27421818  0.61226637    -0.71600
O1877       O  0.55698771  0.27465635  0.58258192    -0.71600
O1878       O  0.96961589  0.27439850  0.58385133    -0.71700
V1879       V  0.98527472  0.21823640  0.58298943     1.40000
V1880       V  0.51275592  0.27347960  0.58320718     1.35200
C1881       C  0.94037173  0.24557354  0.58378031     0.77700
C1882       C  0.55752569  0.24588614  0.58254813     0.77700
C1883       C  0.50007813  0.24538473  0.62213710     0.77600
C1884       C  0.49815954  0.24652043  0.54405771     0.77600
O1885       O  0.69218420  0.47136949  0.58446401    -0.71500
O1886       O  0.77934814  0.47159714  0.58285247    -0.71800
O1887       O  0.73706493  0.47133266  0.61276949    -0.71600
O1888       O  0.73465441  0.47173283  0.55460834    -0.71600
O1889       O  0.76455777  0.02946923  0.55460236    -0.71600
O1890       O  0.76437447  0.02929332  0.61278188    -0.71600
O1891       O  0.80812747  0.02941325  0.58368227    -0.71600
O1892       O  0.72079158  0.02922133  0.58366082    -0.71700
V1893       V  0.73635567  0.47262553  0.58368363     1.35200
V1894       V  0.76391859  0.02825335  0.58368897     1.35200
C1895       C  0.69154220  0.00041433  0.58406167     0.77700
C1896       C  0.80866244  0.00066025  0.58313489     0.77700
C1897       C  0.75098579  0.00053351  0.62270404     0.77600
C1898       C  0.74946316  0.00076556  0.54463092     0.77600
O1899       O  0.76432641  0.27446945  0.55449735    -0.71500
O1900       O  0.76260172  0.27546932  0.61265735    -0.71800
O1901       O  0.80709132  0.27499344  0.58426034    -0.71600
O1902       O  0.72008350  0.27505299  0.58283445    -0.71600
O1903       O  0.69124332  0.21762792  0.58411780    -0.71600
O1904       O  0.77845090  0.21753653  0.58370597    -0.71600
O1905       O  0.73550938  0.21798567  0.61302238    -0.71600
O1906       O  0.73426901  0.21702928  0.55481322    -0.71700
V1907       V  0.76298899  0.27387289  0.58357721     1.35200
V1908       V  0.73539238  0.21863672  0.58391244     1.35200
C1909       C  0.74931236  0.24558975  0.54468506     0.77700
C1910       C  0.74905658  0.24689524  0.62277487     0.77700
C1911       C  0.80772689  0.24631377  0.58402641     0.77600
C1912       C  0.69077053  0.24640930  0.58333659     0.77600
O1913       O  0.97029326  0.44484267  0.75004269    -0.71500
O1914       O  0.55778404  0.03143133  0.74924917    -0.71800
O1915       O  0.51444776  0.48877969  0.77869322    -0.71600
O1916       O  0.51326294  0.48727448  0.72053436    -0.71600
O1917       O  0.98680975  0.01848350  0.72047631    -0.71600
O1918       O  0.98464078  0.01632688  0.77867945    -0.71600
O1919       O  0.52943915  0.06057962  0.75025565    -0.71600
O1920       O  0.94172948  0.47376501  0.74881548    -0.71700
V1921       V  0.51341205  0.48869228  0.74961865     1.35200
V1922       V  0.98617484  0.01673311  0.74957544     1.35200
C1923       C  0.94104617  0.44440066  0.74938838     0.77700
C1924       C  0.55862563  0.06085347  0.74986411     0.77700
C1925       C  0.49955036  0.00246696  0.78864155     0.77600
C1926       C  0.50007547  0.00296548  0.71058346     0.77600
O1927       O  0.94511047  0.21832875  0.74861025    -0.71500
O1928       O  0.53192635  0.30545370  0.75002748    -0.71800
O1929       O  0.99016606  0.26294190  0.72026782    -0.71600
O1930       O  0.98721333  0.26100376  0.77841231    -0.71600
O1931       O  0.51843268  0.23477265  0.77877880    -0.71600
O1932       O  0.51628228  0.23151020  0.72060848    -0.71600
O1933       O  0.56102302  0.27705738  0.74887409    -0.71600
O1934       O  0.97388631  0.18967703  0.75055636    -0.71700
V1935       V  0.98913866  0.26134838  0.74933798     1.35200
V1936       V  0.51690360  0.23382600  0.74969185     1.35200
C1937       C  0.94455797  0.18907612  0.74962580     0.77700
C1938       C  0.56132998  0.30626126  0.74941498     0.77700
C1939       C  0.50329214  0.24712739  0.71055507     0.77600
C1940       C  0.50271968  0.24795418  0.78856590     0.77600
O1941       O  0.69401070  0.46901085  0.74941550    -0.71500
O1942       O  0.78105312  0.05655705  0.75075154    -0.71800
O1943       O  0.73889245  0.01408577  0.72104717    -0.71600
O1944       O  0.73628981  0.01185136  0.77910962    -0.71600
O1945       O  0.76760379  0.48594018  0.77944669    -0.71600
O1946       O  0.76515896  0.48281983  0.72118350    -0.71600
O1947       O  0.80999521  0.02801325  0.74946228    -0.71600
O1948       O  0.72321729  0.44077966  0.75118853    -0.71700
V1949       V  0.73810849  0.01228089  0.75007365     1.35200
V1950       V  0.76593580  0.48494486  0.75031249     1.35200
C1951       C  0.69377859  0.43985604  0.75027329     0.77700
C1952       C  0.81043698  0.05722833  0.75005687     0.77700
C1953       C  0.75194662  0.49835834  0.71121774     0.77600
C1954       C  0.75189726  0.49913704  0.78926130     0.77600
O1955       O  0.73654747  0.26531149  0.77937846    -0.71500
O1956       O  0.73701140  0.26571869  0.72114281    -0.71800
O1957       O  0.69332030  0.22181415  0.75015961    -0.71600
O1958       O  0.78004140  0.30917560  0.75032572    -0.71600
O1959       O  0.80916459  0.28078850  0.74957114    -0.71600
O1960       O  0.72226627  0.19325841  0.75107023    -0.71600
O1961       O  0.76447473  0.23561069  0.72124044    -0.71600
O1962       O  0.76681094  0.23808085  0.77938789    -0.71700
V1963       V  0.73727421  0.26493071  0.75025918     1.35200
V1964       V  0.76516545  0.23752519  0.75031468     1.35200
C1965       C  0.75178317  0.25178027  0.78935708     0.77700
C1966       C  0.75053060  0.25041114  0.71126990     0.77700
C1967       C  0.69288319  0.19258385  0.75068100     0.77600
C1968       C  0.80946598  0.30997955  0.74985204     0.77600
C1969       C  0.87831586  0.15548686  0.74816151    -0.21100
C1970       C  0.91038982  0.15519365  0.74973297    -0.09100
C1971       C  0.90919706  0.12239545  0.75141403     0.29700
C1972       C  0.87664071  0.09082285  0.75148698    -0.21100
C1973       C  0.84457191  0.09112265  0.74995134    -0.09100
C1974       C  0.84575206  0.12390571  0.74826897     0.29700
F1975       F  0.81556158  0.12561066  0.74654539    -0.19700
H1976       H  0.87835190  0.18027764  0.74680682     0.18100
H1977       H  0.87660052  0.06602751  0.75283450     0.18100
F1978       F  0.93937119  0.12063878  0.75305304    -0.19600
C1979       C  0.62749759  0.34105917  0.75174331    -0.21100
C1980       C  0.59513951  0.34049341  0.74944698    -0.09100
C1981       C  0.59556197  0.37290263  0.74736375     0.29700
C1982       C  0.62765003  0.40496648  0.74770500    -0.21100
C1983       C  0.66000959  0.40555893  0.75008884    -0.09100
C1984       C  0.65959507  0.37313008  0.75209969     0.29700
F1985       F  0.69010282  0.37221567  0.75452326    -0.19700
H1986       H  0.62801253  0.31658842  0.75342002     0.18100
H1987       H  0.62710717  0.42941938  0.74601522     0.18100
F1988       F  0.56506211  0.37378402  0.74480361    -0.19600
C1989       C  0.90761356  0.37836018  0.75142909    -0.21100
C1990       C  0.90714405  0.41024145  0.74937401    -0.09100
C1991       C  0.87422608  0.40879712  0.74739704     0.29700
C1992       C  0.84270002  0.37614424  0.74756127    -0.21100
C1993       C  0.84321599  0.34427336  0.74963990    -0.09100
C1994       C  0.87613625  0.34575381  0.75157423     0.29700
F1995       F  0.87808215  0.31580581  0.75383115    -0.19700
H1996       H  0.93249674  0.37857521  0.75303303     0.18100
H1997       H  0.81777611  0.37585814  0.74598472     0.18100
F1998       F  0.87233583  0.43879188  0.74521682    -0.19600
C1999       C  0.62495268  0.09418579  0.75107040    -0.21100
C2000       C  0.59289696  0.09462548  0.75017568    -0.09100
C2001       C  0.59413632  0.12753239  0.74963463     0.29700
C2002       C  0.62669159  0.15906034  0.74988731    -0.21100
C2003       C  0.65875511  0.15866060  0.75070543    -0.09100
C2004       C  0.65755241  0.12576305  0.75136043     0.29700
F2005       F  0.68774851  0.12392143  0.75226348    -0.19700
H2006       H  0.62486273  0.06929711  0.75157460     0.18100
H2007       H  0.62671662  0.18391549  0.74937018     0.18100
F2008       F  0.56398670  0.12945535  0.74873844    -0.19600
C2009       C  0.75065188  0.27637343  0.65583080    -0.21100
C2010       C  0.74907531  0.24741502  0.64541831    -0.09100
C2011       C  0.74783885  0.21941578  0.65684783     0.29700
C2012       C  0.74869444  0.22078113  0.67826488    -0.21100
C2013       C  0.74991604  0.24957662  0.68865641    -0.09100
C2014       C  0.75065833  0.27732890  0.67725122     0.29700
F2015       F  0.75231593  0.30580591  0.68677320    -0.19700
H2016       H  0.75155470  0.29819653  0.64736284     0.18100
H2017       H  0.74799158  0.19907326  0.68675945     0.18100
F2018       F  0.74662690  0.19111071  0.64736568    -0.19600
C2019       C  0.75636109  0.02899014  0.67813208    -0.21100
C2020       C  0.75200101  0.49863798  0.68863852    -0.09100
C2021       C  0.74781052  0.46930730  0.67739575     0.29700
C2022       C  0.74716367  0.46983418  0.65597067    -0.21100
C2023       C  0.75161584  0.00036055  0.64536296    -0.09100
C2024       C  0.75646809  0.02992331  0.65671934     0.29700
F2025       F  0.76065433  0.05949046  0.64720329    -0.19700
H2026       H  0.75985798  0.05190827  0.68658034     0.18100
H2027       H  0.74361638  0.44681485  0.64762470     0.18100
F2028       F  0.74329280  0.43976767  0.68710413    -0.19600
C2029       C  0.90628838  0.27768413  0.58329548    -0.21100
C2030       C  0.90630000  0.24547196  0.58402385    -0.09100
C2031       C  0.87358690  0.21356729  0.58483992     0.29700
C2032       C  0.84176824  0.21412499  0.58486303    -0.21100
C2033       C  0.84176718  0.24634693  0.58408960    -0.09100
C2034       C  0.87448273  0.27824146  0.58330980     0.29700
F2035       F  0.87593558  0.31006248  0.58242532    -0.19700
H2036       H  0.93101025  0.30264273  0.58261744     0.18100
H2037       H  0.81703569  0.18917081  0.58550067     0.18100
F2038       F  0.87215238  0.18174840  0.58565133    -0.19600
C2039       C  0.62369536  0.27784324  0.58078165    -0.21100
C2040       C  0.59149489  0.24579734  0.58257407    -0.09100
C2041       C  0.59228381  0.21399793  0.58457719     0.29700
C2042       C  0.62460896  0.21448319  0.58477595    -0.21100
C2043       C  0.65681576  0.24652708  0.58301598    -0.09100
C2044       C  0.65603128  0.27832741  0.58097350     0.29700
F2045       F  0.68640214  0.30997294  0.57908875    -0.19700
H2046       H  0.62392288  0.30270051  0.57919438     0.18100
H2047       H  0.62436325  0.18962332  0.58640368     0.18100
F2048       F  0.56192774  0.18236264  0.58655202    -0.19600
C2049       C  0.01146658  0.27712801  0.65554573    -0.21100
C2050       C  0.50108413  0.24544498  0.64482120    -0.09100
C2051       C  0.49205863  0.21438015  0.65601502     0.29700
C2052       C  0.49357352  0.21527397  0.67744026    -0.21100
C2053       C  0.50323774  0.24680330  0.68802735    -0.09100
C2054       C  0.01225428  0.27778344  0.67694798     0.29700
F2055       F  0.02263783  0.30886462  0.68682255    -0.19700
H2056       H  0.01872590  0.30145247  0.64736761     0.18100
H2057       H  0.48646524  0.19114166  0.68580517     0.18100
F2058       F  0.48197473  0.18319986  0.64634137    -0.19600
C2059       C  0.87489660  0.03286395  0.58272499    -0.21100
C2060       C  0.84265628  0.00062568  0.58284242    -0.09100
C2061       C  0.84346293  0.46838833  0.58253032     0.29700
C2062       C  0.87583274  0.46896529  0.58244693    -0.21100
C2063       C  0.90802277  0.00145337  0.58265043    -0.09100
C2064       C  0.90725445  0.03339963  0.58260820     0.29700
F2065       F  0.93766388  0.06524888  0.58253362    -0.19700
H2066       H  0.87514791  0.05784401  0.58275256     0.18100
H2067       H  0.87559928  0.44399512  0.58230364     0.18100
F2068       F  0.81308327  0.43651702  0.58241178    -0.19600
C2069       C  0.59291726  0.46870284  0.58329983    -0.21100
C2070       C  0.59296494  0.00125469  0.58360134    -0.09100
C2071       C  0.62569179  0.03314875  0.58431559     0.29700
C2072       C  0.65748746  0.03256790  0.58451344    -0.21100
C2073       C  0.65747793  0.00033541  0.58402336    -0.09100
C2074       C  0.62469899  0.46807926  0.58353234     0.29700
F2075       F  0.62320020  0.43621566  0.58309182    -0.19700
H2076       H  0.56816076  0.44375542  0.58283990     0.18100
H2077       H  0.68222197  0.05752975  0.58505081     0.18100
F2078       F  0.62717179  0.06500013  0.58482289    -0.19600
C2079       C  0.49704565  0.47310683  0.67743043    -0.21100
C2080       C  0.50001170  0.00274977  0.68798746    -0.09100
C2081       C  0.00328050  0.03178488  0.67676645     0.29700
C2082       C  0.00360329  0.03126503  0.65533918    -0.21100
C2083       C  0.49989705  0.00153219  0.64474467    -0.09100
C2084       C  0.49651389  0.47217334  0.65601093     0.29700
F2085       F  0.49336035  0.44310754  0.64641132    -0.19700
H2086       H  0.49460155  0.45053449  0.68582252     0.18100
H2087       H  0.00643877  0.05405333  0.64701785     0.18100
F2088       F  0.00710058  0.06102471  0.68648784    -0.19600
C2089       C  0.76683702  0.23574941  0.84478097    -0.21100
C2090       C  0.75104119  0.25229522  0.85547530    -0.09100
C2091       C  0.73569435  0.26880986  0.84420249     0.29700
C2092       C  0.73613800  0.26854177  0.82277825    -0.21100
C2093       C  0.75186668  0.25193273  0.81208533    -0.09100
C2094       C  0.76731473  0.23551065  0.82336188     0.29700
F2095       F  0.78277843  0.21902284  0.81379432    -0.19700
H2096       H  0.77888056  0.22283688  0.85300838     0.18100
H2097       H  0.72407982  0.28143196  0.81454444     0.18100
F2098       F  0.72020587  0.28525697  0.85378265    -0.19600
C2099       C  0.77051760  0.98831398  0.84487842    -0.21100
C2100       C  0.74954132  0.99950796  0.85525650    -0.09100
C2101       C  0.72872442  0.50996007  0.84375686     0.29700
C2102       C  0.72983564  0.50979156  0.82234683    -0.21100
C2103       C  0.75148650  0.49940843  0.81197426    -0.09100
C2104       C  0.77166217  0.98818454  0.82347198     0.29700
F2105       F  0.79271910  0.97760868  0.81418156    -0.19700
H2106       H  0.78638293  0.97980594  0.85336940     0.18100
H2107       H  0.71344424  0.51761202  0.81386885     0.18100
F2108       F  0.70703571  0.51973710  0.85305235    -0.19600
C2109       C  0.87353036  0.09249516  0.91760224    -0.21100
C2110       C  0.84136568  0.09265237  0.91643992    -0.09100
C2111       C  0.84234490  0.12538999  0.91511699     0.29700
C2112       C  0.87481261  0.15706050  0.91500950    -0.21100
C2113       C  0.90698271  0.15690628  0.91622639    -0.09100
C2114       C  0.90599109  0.12416051  0.91751937     0.29700
F2115       F  0.93627871  0.12254253  0.91876835    -0.19700
H2116       H  0.87364410  0.06774653  0.91865625     0.18100
H2117       H  0.87469625  0.18180984  0.91397467     0.18100
F2118       F  0.81204444  0.12698487  0.91383746    -0.19600
C2119       C  0.59172702  0.37419689  0.91576983    -0.21100
C2120       C  0.59187637  0.34208110  0.91699260    -0.09100
C2121       C  0.62467751  0.34310601  0.91848033     0.29700
C2122       C  0.65639524  0.37554599  0.91864067    -0.21100
C2123       C  0.65625692  0.40766538  0.91734024    -0.09100
C2124       C  0.62344233  0.40663547  0.91591720     0.29700
F2125       F  0.62180697  0.43686954  0.91454805    -0.19700
H2126       H  0.56693879  0.37428348  0.91459919     0.18100
H2127       H  0.68118073  0.37545248  0.91979487     0.18100
F2128       F  0.62628954  0.31286193  0.91988598    -0.19600
C2129       C  0.51943558  0.23503906  0.84424641    -0.21100
C2130       C  0.50077934  0.24890974  0.85463734    -0.09100
C2131       C  0.98275996  0.26234061  0.84308423     0.29700
C2132       C  0.98359730  0.26190823  0.82168251    -0.21100
C2133       C  0.50231726  0.24812722  0.81128131    -0.09100
C2134       C  0.52029733  0.23463075  0.82283024     0.29700
F2135       F  0.53883060  0.22109349  0.81353286    -0.19700
H2136       H  0.53357936  0.22454993  0.85271126     0.18100
H2137       H  0.96941307  0.27237231  0.81323711     0.18100
F2138       F  0.96404140  0.27567868  0.85237075    -0.19600
C2139       C  0.87615823  0.40918849  0.91597058    -0.21100
C2140       C  0.90841318  0.40913132  0.91649675    -0.09100
C2141       C  0.90757961  0.37642681  0.91740218     0.29700
C2142       C  0.87521335  0.34470344  0.91766149    -0.21100
C2143       C  0.84295852  0.34472346  0.91708120    -0.09100
C2144       C  0.84375299  0.37742529  0.91627543     0.29700
F2145       F  0.81333827  0.37889329  0.91568663    -0.19700
H2146       H  0.87593696  0.43391388  0.91531625     0.18100
H2147       H  0.87548164  0.32000427  0.91834643     0.18100
F2148       F  0.93795146  0.37489118  0.91809400    -0.19600
C2149       C  0.65876470  0.12679642  0.91809294    -0.21100
C2150       C  0.65863930  0.15896107  0.91720917    -0.09100
C2151       C  0.62582221  0.15799192  0.91625469     0.29700
C2152       C  0.59409212  0.12560542  0.91619035    -0.21100
C2153       C  0.59418350  0.09344016  0.91703309    -0.09100
C2154       C  0.62698965  0.09436822  0.91801209     0.29700
F2155       F  0.62854524  0.06405691  0.91898927    -0.19700
H2156       H  0.68356532  0.12666691  0.91887170     0.18100
H2157       H  0.56931785  0.12578383  0.91540020     0.18100
F2158       F  0.62418227  0.18825770  0.91530710    -0.19600
C2159       C  0.01289477  0.48354343  0.82192769    -0.21100
C2160       C  0.49968846  0.00232917  0.81135109    -0.09100
C2161       C  0.48694444  0.02110718  0.82273818     0.29700
C2162       C  0.48766307  0.02077487  0.84415965    -0.21100
C2163       C  0.50101330  0.00177558  0.85471033    -0.09100
C2164       C  0.01352917  0.48320142  0.84333374     0.29700
F2165       F  0.02639963  0.46421494  0.85280376    -0.19700
H2166       H  0.02284093  0.46878102  0.81362634     0.18100
H2167       H  0.47779777  0.03557202  0.85249928     0.18100
F2168       F  0.47407417  0.04009980  0.81327043    -0.19600
C2169       C  0.77779705  0.24946818  0.01142105    -0.21100
C2170       C  0.75145871  0.25234213  0.02219723    -0.09100
C2171       C  0.72526691  0.25530513  0.01120848     0.29700
C2172       C  0.72561821  0.25550995  0.98979025    -0.21100
C2173       C  0.75159046  0.25201385  0.97895792    -0.09100
C2174       C  0.77770345  0.24887048  0.98999132     0.29700
F2175       F  0.80348296  0.24578486  0.98012238    -0.19700
H2176       H  0.79813960  0.24707479  0.01961845     0.18100
H2177       H  0.70527197  0.25799550  0.98166502     0.18100
F2178       F  0.69977846  0.25878680  0.02115622    -0.19600
C2179       C  0.78132949  0.40763336  0.08785926    -0.21100
C2180       C  0.75007380  0.40821280  0.08329481    -0.09100
C2181       C  0.71898174  0.37600381  0.07893189     0.29700
C2182       C  0.71930596  0.34407534  0.07930883    -0.21100
C2183       C  0.75055418  0.34351108  0.08389792    -0.09100
C2184       C  0.78166958  0.37572465  0.08819569     0.29700
F2185       F  0.81235540  0.37646890  0.09307358    -0.19700
H2186       H  0.80559650  0.43194919  0.09138518     0.18100
H2187       H  0.69506127  0.31974051  0.07577603     0.18100
F2188       F  0.68832820  0.37527181  0.07399176    -0.19600
C2189       C  0.78283892  0.12584935  0.08412173    -0.21100
C2190       C  0.75066311  0.09355181  0.08368995    -0.09100
C2191       C  0.71863079  0.09422709  0.08316918     0.29700
C2192       C  0.71900764  0.12648279  0.08310619    -0.21100
C2193       C  0.75116215  0.15878101  0.08357364    -0.09100
C2194       C  0.78321527  0.15812418  0.08407922     0.29700
F2195       F  0.81502416  0.18857040  0.08451771    -0.19700
H2196       H  0.80790006  0.12620597  0.08451737     0.18100
H2197       H  0.69393527  0.12610081  0.08270532     0.18100
F2198       F  0.68681756  0.06379749  0.08264981    -0.19600
C2199       C  0.77924357  0.50478250  0.01095473    -0.21100
C2200       C  0.75064047  0.00236723  0.02183744    -0.09100
C2201       C  0.72170685  0.00025585  0.01095224     0.29700
C2202       C  0.72181782  0.00051064  0.98952729    -0.21100
C2203       C  0.75033408  0.00210090  0.97859901    -0.09100
C2204       C  0.77905016  0.50440122  0.98952754     0.29700
F2205       F  0.80746110  0.50682730  0.97943568    -0.19700
H2206       H  0.80180898  0.50645123  0.01898320     0.18100
H2207       H  0.69927663  0.99882423  0.98145715     0.18100
F2208       F  0.69352699  0.99847204  0.02097581    -0.19600
C2209       C  0.02841165  0.25742192  0.01042397    -0.21100
C2210       C  0.49751089  0.25025611  0.02114612    -0.09100
C2211       C  0.46690150  0.24298111  0.00996001     0.29700
C2212       C  0.46757285  0.24334447  0.98851884    -0.21100
C2213       C  0.49834672  0.25002243  0.97791881    -0.09100
C2214       C  0.02878364  0.25698024  0.98902329     0.29700
F2215       F  0.05918160  0.26430336  0.97917405    -0.19700
H2216       H  0.05232415  0.26310376  0.01861961     0.18100
H2217       H  0.44383865  0.23782439  0.98016600     0.18100
F2218       F  0.43646745  0.23592441  0.01966092    -0.19600
C2219       C  0.53018624  0.40781576  0.08312379    -0.21100
C2220       C  0.99787385  0.40776481  0.08336781    -0.09100
C2221       C  0.96596268  0.37502857  0.08363583     0.29700
C2222       C  0.96659796  0.34327564  0.08358343    -0.21100
C2223       C  0.99890621  0.34332020  0.08325988    -0.09100
C2224       C  0.53082279  0.37606206  0.08306215     0.29700
F2225       F  0.56274469  0.37759569  0.08278183    -0.19700
H2226       H  0.55516854  0.43255175  0.08291722     0.18100
H2227       H  0.94161356  0.31854324  0.08377475     0.18100
F2228       F  0.93404548  0.37350227  0.08397529    -0.19600
C2229       C  0.52987819  0.12490038  0.08086246    -0.21100
C2230       C  0.99773749  0.09270892  0.08235517    -0.09100
C2231       C  0.96585635  0.09354970  0.08385226     0.29700
C2232       C  0.96638801  0.12589908  0.08386822    -0.21100
C2233       C  0.99855573  0.15809118  0.08243968    -0.09100
C2234       C  0.53041184  0.15723239  0.08090110     0.29700
F2235       F  0.56218765  0.18754729  0.07936383    -0.19700
H2236       H  0.55482425  0.12514042  0.07966666     0.18100
H2237       H  0.94145783  0.12568764  0.08508926     0.18100
F2238       F  0.93408702  0.06322421  0.08539628    -0.19600
C2239       C  0.97280329  0.50240375  0.98860736    -0.21100
C2240       C  0.49965183  0.99908792  0.97811766    -0.09100
C2241       C  0.52518123  0.99555225  0.98949152     0.29700
C2242       C  0.52437397  0.99575591  0.01090084    -0.21100
C2243       C  0.49765605  0.99854053  0.02132330    -0.09100
C2244       C  0.97153224  0.50170035  0.01002126     0.29700
F2245       F  0.94571061  0.50505683  0.01964178    -0.19700
H2246       H  0.95286203  0.50517312  0.98020883     0.18100
H2247       H  0.54454465  0.99347241  0.01936871     0.18100
F2248       F  0.55141556  0.99275118  0.97998580    -0.19600
C2249       C  0.73435355  0.21424186  0.48931852    -0.21100
C2250       C  0.74983695  0.24653471  0.47858380    -0.09100
C2251       C  0.76517837  0.27838567  0.48981203     0.29700
C2252       C  0.76492408  0.27772992  0.51122009    -0.21100
C2253       C  0.74937897  0.24546246  0.52196479    -0.09100
C2254       C  0.73404444  0.21358962  0.51075137     0.29700
F2255       F  0.71874273  0.18172181  0.52039478    -0.19700
H2256       H  0.72233178  0.18931356  0.48111832     0.18100
H2257       H  0.77688418  0.30267864  0.51939757     0.18100
F2258       F  0.78038677  0.31028473  0.48020685    -0.19600
C2259       C  0.73060007  0.47009524  0.48928296    -0.21100
C2260       C  0.75026266  0.00218128  0.47857669    -0.09100
C2261       C  0.76935163  0.03378208  0.48982751     0.29700
C2262       C  0.76880609  0.03305173  0.51124627    -0.21100
C2263       C  0.74930519  0.00094845  0.52192722    -0.09100
C2264       C  0.73004666  0.46927111  0.51068924     0.29700
F2265       F  0.71058152  0.43757507  0.52022975    -0.19700
H2266       H  0.71557955  0.44540478  0.48102217     0.18100
H2267       H  0.78391696  0.05775566  0.51948291     0.18100
F2268       F  0.78887955  0.06541072  0.48022785    -0.19600
C2269       C  0.50489610  0.27739167  0.48894667    -0.21100
C2270       C  0.49750632  0.24666160  0.47803372    -0.09100
C2271       C  0.99018358  0.21592929  0.48904584     0.29700
C2272       C  0.99021803  0.21609917  0.51046265    -0.21100
C2273       C  0.49773367  0.24684010  0.52137486    -0.09100
C2274       C  0.50498791  0.27757427  0.51038026     0.29700
F2275       F  0.51164550  0.30768455  0.52026797    -0.19700
H2276       H  0.51042916  0.30135166  0.48087843     0.18100
H2277       H  0.98478718  0.19216660  0.51852529     0.18100
F2278       F  0.98368014  0.18584349  0.47919534    -0.19600
C2279       C  0.90602406  0.27934035  0.41318569    -0.21100
C2280       C  0.90634488  0.24738541  0.41513844    -0.09100
C2281       C  0.87377133  0.21548958  0.41689133     0.29700
C2282       C  0.84184360  0.21581298  0.41693893    -0.21100
C2283       C  0.84152139  0.24777977  0.41525729    -0.09100
C2284       C  0.87405144  0.27965266  0.41320948     0.29700
F2285       F  0.87513670  0.31118207  0.41115948    -0.19700
H2286       H  0.93061761  0.30426342  0.41167230     0.18100
H2287       H  0.81727298  0.19087771  0.41848643     0.18100
F2288       F  0.87257499  0.18388630  0.41876165    -0.19600
C2289       C  0.59184986  0.21625127  0.41269314    -0.21100
C2290       C  0.59140015  0.24739070  0.41769410    -0.09100
C2291       C  0.62346660  0.27789207  0.42301034     0.29700
C2292       C  0.65521255  0.27719839  0.42299076    -0.21100
C2293       C  0.65569242  0.24615167  0.41782792    -0.09100
C2294       C  0.62358647  0.21553495  0.41272849     0.29700
F2295       F  0.62284903  0.18511034  0.40728848    -0.19700
H2296       H  0.56759891  0.19241482  0.40848116     0.18100
H2297       H  0.67949919  0.30104335  0.42714723     0.18100
F2298       F  0.62423542  0.30832304  0.42846009    -0.19600
C2299       C  0.01901212  0.03296511  0.51051233    -0.21100
C2300       C  0.50018474  0.00087234  0.52128348    -0.09100
C2301       C  0.48146913  0.46920929  0.51004613     0.29700
C2302       C  0.48142686  0.46991866  0.48863449    -0.21100
C2303       C  0.49988105  0.00189588  0.47792245    -0.09100
C2304       C  0.01894975  0.03359114  0.48909553     0.29700
F2305       F  0.03785517  0.06523909  0.47941933    -0.19700
H2306       H  0.03397587  0.05776502  0.51867555     0.18100
H2307       H  0.46654209  0.44513714  0.48044158     0.18100
F2308       F  0.46272547  0.43748786  0.51966934    -0.19600
C2309       C  0.87532903  0.47021884  0.41392558    -0.21100
C2310       C  0.90743870  0.00193113  0.41587217    -0.09100
C2311       C  0.90656935  0.03360103  0.41825494     0.29700
C2312       C  0.87421138  0.03305867  0.41839377    -0.21100
C2313       C  0.84203540  0.00107425  0.41618372    -0.09100
C2314       C  0.84294523  0.46965531  0.41406352     0.29700
F2315       F  0.81263003  0.43808978  0.41175685    -0.19700
H2316       H  0.87517035  0.44544303  0.41205993     0.18100
H2317       H  0.87440638  0.05783586  0.42035328     0.18100
F2318       F  0.93686878  0.06512978  0.42071014    -0.19600
C2319       C  0.62552660  0.47041179  0.41753775    -0.21100
C2320       C  0.65776007  0.00260452  0.41715536    -0.09100
C2321       C  0.65682655  0.03443362  0.41669708     0.29700
C2322       C  0.62436364  0.03368725  0.41656014    -0.21100
C2323       C  0.59218403  0.00134341  0.41686975    -0.09100
C2324       C  0.59309377  0.46969802  0.41737810     0.29700
F2325       F  0.56276110  0.43780138  0.41786584    -0.19700
H2326       H  0.62535842  0.44548172  0.41798362     0.18100
H2327       H  0.62448968  0.05859912  0.41615698     0.18100
F2328       F  0.68715597  0.06634274  0.41634804    -0.19600
C2329       C  0.71828612  0.22619401  0.17784894    -0.21100
C2330       C  0.74868845  0.25025713  0.18876924    -0.09100
C2331       C  0.77929093  0.27411803  0.17781423     0.29700
C2332       C  0.77934756  0.27369787  0.15640702    -0.21100
C2333       C  0.74897136  0.24966041  0.14546904    -0.09100
C2334       C  0.71835422  0.22573447  0.15642259     0.29700
F2335       F  0.68866775  0.20143378  0.14650791    -0.19700
H2336       H  0.69448951  0.20735276  0.18591514     0.18100
H2337       H  0.80316599  0.29256014  0.14836918     0.18100
F2338       F  0.80899323  0.29838440  0.18772518    -0.19600
C2339       C  0.71794641  0.22211828  0.32276276    -0.21100
C2340       C  0.74727468  0.24860715  0.31208081    -0.09100
C2341       C  0.77634106  0.27456776  0.32322362     0.29700
C2342       C  0.77582910  0.27406007  0.34462247    -0.21100
C2343       C  0.74681077  0.24726482  0.35527479    -0.09100
C2344       C  0.71782251  0.22114620  0.34419133     0.29700
F2345       F  0.68906742  0.19521712  0.35405478    -0.19700
H2346       H  0.69528139  0.20185750  0.31450533     0.18100
H2347       H  0.79842781  0.29437651  0.35290204     0.18100
F2348       F  0.80500438  0.30082903  0.31348016    -0.19600
C2349       C  0.78116908  0.40718441  0.25129379    -0.21100
C2350       C  0.74917424  0.40770896  0.25083474    -0.09100
C2351       C  0.71695786  0.37520854  0.25040451     0.29700
C2352       C  0.71699576  0.34314654  0.25038930    -0.21100
C2353       C  0.74898793  0.34261690  0.25078885    -0.09100
C2354       C  0.78120676  0.37511531  0.25126331     0.29700
F2355       F  0.81287322  0.37611203  0.25168634    -0.19700
H2356       H  0.80635128  0.43170188  0.25163072     0.18100
H2357       H  0.69180950  0.31863456  0.25003403     0.18100
F2358       F  0.68528452  0.37419931  0.25000406    -0.19600
C2359       C  0.71757417  0.09276559  0.25311597    -0.21100
C2360       C  0.74963968  0.09296647  0.24996382    -0.09100
C2361       C  0.78086711  0.12561858  0.24681041     0.29700
C2362       C  0.77985900  0.15717534  0.24693794    -0.21100
C2363       C  0.74782097  0.15698520  0.25013056    -0.09100
C2364       C  0.71655880  0.12432785  0.25321749     0.29700
F2365       F  0.68503271  0.12276015  0.25660550    -0.19700
H2366       H  0.69312087  0.06807563  0.25564886     0.18100
H2367       H  0.80431361  0.18186930  0.24441834     0.18100
F2368       F  0.81239805  0.12720785  0.24342180    -0.19600
C2369       C  0.71962509  0.49169423  0.17784835    -0.21100
C2370       C  0.75092671  0.50077122  0.18867022    -0.09100
C2371       C  0.78223319  0.01035320  0.17751998     0.29700
C2372       C  0.78193567  0.01041767  0.15608910    -0.21100
C2373       C  0.75040915  0.50081802  0.14532443    -0.09100
C2374       C  0.71927463  0.49175823  0.15643466     0.29700
F2375       F  0.68855278  0.48351868  0.14667978    -0.19700
H2376       H  0.69529840  0.48475044  0.18597523     0.18100
H2377       H  0.80635373  0.01772587  0.14796255     0.18100
F2378       F  0.81312804  0.01933219  0.18729964    -0.19600
C2379       C  0.72241772  0.47330474  0.32283653    -0.21100
C2380       C  0.74972787  0.50165781  0.31201520    -0.09100
C2381       C  0.77766727  0.02896195  0.32298491     0.29700
C2382       C  0.77711871  0.02905133  0.34440121    -0.21100
C2383       C  0.74898304  0.00149014  0.35522317    -0.09100
C2384       C  0.72227499  0.47299272  0.34425976     0.29700
F2385       F  0.69547432  0.44502622  0.35417267    -0.19700
H2386       H  0.70140244  0.45108307  0.31468484     0.18100
H2387       H  0.79900628  0.05045698  0.35254915     0.18100
F2388       F  0.80539971  0.05604052  0.31307680    -0.19600
C2389       C  0.53164821  0.26344911  0.17708382    -0.21100
C2390       C  0.49972594  0.25065707  0.18800902    -0.09100
C2391       C  0.96781517  0.23785753  0.17697786     0.29700
C2392       C  0.96806920  0.23793170  0.15555753    -0.21100
C2393       C  0.49999279  0.25076734  0.14463309    -0.09100
C2394       C  0.53190139  0.26353085  0.15566011     0.29700
F2395       F  0.56340079  0.27587481  0.14583592    -0.19700
H2396       H  0.55660392  0.27335390  0.18513395     0.18100
H2397       H  0.94311303  0.22802655  0.14750797     0.18100
F2398       F  0.93630051  0.22545661  0.18679261    -0.19600
C2399       C  0.97441645  0.22201002  0.32194681    -0.21100
C2400       C  0.50201298  0.25056571  0.31140267    -0.09100
C2401       C  0.52933914  0.27828303  0.32265518     0.29700
C2402       C  0.52859194  0.27754381  0.34409391    -0.21100
C2403       C  0.50109567  0.24883085  0.35464497    -0.09100
C2404       C  0.97408959  0.22086018  0.34334850     0.29700
F2405       F  0.94689014  0.19277465  0.35294674    -0.19700
H2406       H  0.95319257  0.20031433  0.31358033     0.18100
H2407       H  0.54970517  0.29933457  0.35246057     0.18100
F2408       F  0.55624508  0.30650877  0.31297523    -0.19600
C2409       C  0.96937034  0.37653478  0.24829886    -0.21100
C2410       C  0.00151015  0.40879425  0.24948043    -0.09100
C2411       C  0.53345711  0.40805814  0.25074916     0.29700
C2412       C  0.53298539  0.37572714  0.25082505    -0.21100
C2413       C  0.50080732  0.34346903  0.24968968    -0.09100
C2414       C  0.96889600  0.34424045  0.24839689     0.29700
F2415       F  0.93712806  0.31387437  0.24708833    -0.19700
H2416       H  0.94436255  0.37620662  0.24726948     0.18100
H2417       H  0.55796732  0.37600068  0.25185748     0.18100
F2418       F  0.56520925  0.43845795  0.25201712    -0.19600
C2419       C  0.96876690  0.12645722  0.25257312    -0.21100
C2420       C  0.50078984  0.15842072  0.24972632    -0.09100
C2421       C  0.53226054  0.15723887  0.24697340     0.29700
C2422       C  0.53151912  0.12481515  0.24712778    -0.21100
C2423       C  0.99952685  0.09284309  0.24998762    -0.09100
C2424       C  0.96802840  0.09399998  0.25274159     0.29700
F2425       F  0.93651190  0.06391225  0.25577096    -0.19700
H2426       H  0.94413567  0.12653187  0.25480793     0.18100
H2427       H  0.55617515  0.12479752  0.24488037     0.18100
F2428       F  0.56378093  0.18729576  0.24389322    -0.19600
C2429       C  0.53106349  0.02162170  0.17705985    -0.21100
C2430       C  0.49939632  0.00109314  0.18796496    -0.09100
C2431       C  0.96751753  0.48071280  0.17694572     0.29700
C2432       C  0.96768835  0.48115536  0.15553533    -0.21100
C2433       C  0.49951895  0.00185971  0.14461518    -0.09100
C2434       C  0.53123798  0.02213213  0.15563712     0.29700
F2435       F  0.56245953  0.04267410  0.14581166    -0.19700
H2436       H  0.55583211  0.03753381  0.18512724     0.18100
H2437       H  0.94290838  0.46517697  0.14749212     0.18100
F2438       F  0.93631523  0.46010113  0.18677155    -0.19600
C2439       C  0.97307917  0.47304683  0.34380935    -0.21100
C2440       C  0.50092036  0.00088157  0.35456735    -0.09100
C2441       C  0.52928221  0.02796635  0.34353227     0.29700
C2442       C  0.52932597  0.02728536  0.32210887    -0.21100
C2443       C  0.50081960  0.00004323  0.31133943    -0.09100
C2444       C  0.97278119  0.47264231  0.32239229     0.29700
F2445       F  0.94548359  0.44503614  0.31256021    -0.19700
H2446       H  0.95133675  0.45156865  0.35202340     0.18100
H2447       H  0.55144334  0.04839942  0.31392250     0.18100
F2448       F  0.55729952  0.05470016  0.35343088    -0.19600
O2449       O  0.52978625  0.97217920  0.24979430    -0.71500
O2450       O  0.52835478  0.55855031  0.24929562    -0.71800
O2451       O  0.52930843  0.51600287  0.27868930    -0.71600
O2452       O  0.52858084  0.51485990  0.22045216    -0.71600
O2453       O  0.97118502  0.98685138  0.22077806    -0.71600
O2454       O  0.97188593  0.98503478  0.27886455    -0.71600
O2455       O  0.97086038  0.52931661  0.25053865    -0.71600
O2456       O  0.97227043  0.94285553  0.24915973    -0.71700
V2457       V  0.52788036  0.51480691  0.24957493     1.35200
V2458       V  0.97270124  0.98662646  0.24981915     1.35200
C2459       C  0.00125691  0.94269858  0.24943913     0.77700
C2460       C  0.99944099  0.55877973  0.24999386     0.77700
C2461       C  0.50061526  0.50030925  0.28869858     0.77600
C2462       C  0.49962682  0.50083219  0.21065614     0.77600
O2463       O  0.52966947  0.72178687  0.25007934    -0.71500
O2464       O  0.52964227  0.80895907  0.24927446    -0.71800
O2465       O  0.53011058  0.76630441  0.27879272    -0.71600
O2466       O  0.52930371  0.76461406  0.22059275    -0.71600
O2467       O  0.97179119  0.73712296  0.22086823    -0.71600
O2468       O  0.97253564  0.73588101  0.27902473    -0.71600
O2469       O  0.97214072  0.78013278  0.25035951    -0.71600
O2470       O  0.97213488  0.69304363  0.24955228    -0.71700
V2471       V  0.52857964  0.76484607  0.24969336     1.35200
V2472       V  0.97327163  0.73714125  0.24994696     1.35200
C2473       C  0.50089880  0.69248910  0.24982505     0.77700
C2474       C  0.50083605  0.80945200  0.24975627     0.77700
C2475       C  0.50144183  0.75101708  0.28882392     0.77600
C2476       C  0.50040397  0.75085087  0.21076147     0.77600
O2477       O  0.77839305  0.97107024  0.25142833    -0.71500
O2478       O  0.77890252  0.55863231  0.24939483    -0.71800
O2479       O  0.77865588  0.51666823  0.27953650    -0.71600
O2480       O  0.77921626  0.51358573  0.22145440    -0.71600
O2481       O  0.72164719  0.98741256  0.22113419    -0.71600
O2482       O  0.72093162  0.98535215  0.27937744    -0.71600
O2483       O  0.72142236  0.52994604  0.25092063    -0.71600
O2484       O  0.72094309  0.94275784  0.24975719    -0.71700
V2485       V  0.77775540  0.51445511  0.25049057     1.35200
V2486       V  0.72230952  0.98690162  0.25026145     1.35200
C2487       C  0.74948699  0.94188009  0.25067064     0.77700
C2488       C  0.75012810  0.55919665  0.25005642     0.77700
C2489       C  0.74963927  0.00108911  0.28936281     0.77600
C2490       C  0.75056027  0.00054659  0.21130808     0.77600
O2491       O  0.77642097  0.72009336  0.25023986    -0.71500
O2492       O  0.77695593  0.80733742  0.25090212    -0.71800
O2493       O  0.77624625  0.76309334  0.27963730    -0.71600
O2494       O  0.77700647  0.76444490  0.22153613    -0.71600
O2495       O  0.71944590  0.73553305  0.22124786    -0.71600
O2496       O  0.71865693  0.73451937  0.27946004    -0.71600
O2497       O  0.71943518  0.77903747  0.25052222    -0.71600
O2498       O  0.71887511  0.69146201  0.25022074    -0.71700
V2499       V  0.77550793  0.76315032  0.25057937     1.35200
V2500       V  0.72018913  0.73571917  0.25036269     1.35200
C2501       C  0.74762956  0.69085287  0.25016562     0.77700
C2502       C  0.74838550  0.80822244  0.25078445     0.77700
C2503       C  0.74736027  0.74860515  0.28947186     0.77600
C2504       C  0.74839677  0.75017329  0.21144971     0.77600
O2505       O  0.98544215  0.97302530  0.44534612    -0.71500
O2506       O  0.98498184  0.97250258  0.38717163    -0.71800
O2507       O  0.52876728  0.97259092  0.41625225    -0.71600
O2508       O  0.94177870  0.97300973  0.41627454    -0.71600
O2509       O  0.97087958  0.53078145  0.41563405    -0.71600
O2510       O  0.55775805  0.53028978  0.41656044    -0.71600
O2511       O  0.51515505  0.53030793  0.38698330    -0.71600
O2512       O  0.51382618  0.53073862  0.44515878    -0.71700
V2513       V  0.98580912  0.97388916  0.41625474     1.35200
V2514       V  0.51378972  0.52941494  0.41607609     1.35200
C2515       C  0.49981299  0.50208028  0.45520051     0.77700
C2516       C  0.50029967  0.50146933  0.37714932     0.77700
C2517       C  0.55814794  0.50148003  0.41648197     0.77600
C2518       C  0.94147880  0.50215830  0.41598524     0.77600
O2519       O  0.51075555  0.77556426  0.44551860    -0.71500
O2520       O  0.51567689  0.77648703  0.38739647    -0.71800
O2521       O  0.96943308  0.77583439  0.41497743    -0.71600
O2522       O  0.55674516  0.77602819  0.41797376    -0.71600
O2523       O  0.52813132  0.71866560  0.41583382    -0.71600
O2524       O  0.94093586  0.71843128  0.41649736    -0.71600
O2525       O  0.98417826  0.71906918  0.38708713    -0.71600
O2526       O  0.98495053  0.71818231  0.44526428    -0.71700
V2527       V  0.51260360  0.77490648  0.41645364     1.35200
V2528       V  0.98509632  0.71969125  0.41617815     1.35200
C2529       C  0.49770839  0.74672217  0.45535169     0.77700
C2530       C  0.50019428  0.74793774  0.37730272     0.77700
C2531       C  0.94017648  0.74700917  0.41553200     0.77600
C2532       C  0.55734762  0.74733144  0.41716341     0.77600
O2533       O  0.77863048  0.97269357  0.41616879    -0.71500
O2534       O  0.69202729  0.97370170  0.41761839    -0.71800
O2535       O  0.73394615  0.97297283  0.38784534    -0.71600
O2536       O  0.73639430  0.97341535  0.44598630    -0.71600
O2537       O  0.76421367  0.53101409  0.44591402    -0.71600
O2538       O  0.76493871  0.53059306  0.38771407    -0.71600
O2539       O  0.72113514  0.53125103  0.41653913    -0.71600
O2540       O  0.80785976  0.53035554  0.41709459    -0.71700
V2541       V  0.73585111  0.97430859  0.41690878     1.35200
V2542       V  0.76396249  0.52970277  0.41681938     1.35200
C2543       C  0.80811893  0.50147628  0.41664083     0.77700
C2544       C  0.69170827  0.50266706  0.41706995     0.77700
C2545       C  0.74940054  0.50176216  0.37788340     0.77600
C2546       C  0.75021848  0.50233613  0.45593958     0.77600
O2547       O  0.77774414  0.71789242  0.41597127    -0.71500
O2548       O  0.69016681  0.71717747  0.41761064    -0.71800
O2549       O  0.73241971  0.71741668  0.38774962    -0.71600
O2550       O  0.73517292  0.71756592  0.44594971    -0.71600
O2551       O  0.76290278  0.77501443  0.44586520    -0.71600
O2552       O  0.76201214  0.77496351  0.38774776    -0.71600
O2553       O  0.71866201  0.77467180  0.41719147    -0.71600
O2554       O  0.80613742  0.77535518  0.41638904    -0.71700
V2555       V  0.73445690  0.71861042  0.41683601     1.35200
V2556       V  0.76184815  0.77386925  0.41680392     1.35200
C2557       C  0.80695283  0.74678301  0.41587601     0.77700
C2558       C  0.68946499  0.74583283  0.41752109     0.77700
C2559       C  0.74691104  0.74621057  0.37784958     0.77600
C2560       C  0.74923778  0.74634314  0.45587775     0.77600
O2561       O  0.52683332  0.55823487  0.08172162    -0.71500
O2562       O  0.52719261  0.97138227  0.08376954    -0.71800
O2563       O  0.52632688  0.51271295  0.05368178    -0.71600
O2564       O  0.52741686  0.51642825  0.11174393    -0.71600
O2565       O  0.97012909  0.98576909  0.11215973    -0.71600
O2566       O  0.96901929  0.98643514  0.05393350    -0.71600
O2567       O  0.96969120  0.94258100  0.08270692    -0.71600
O2568       O  0.96938498  0.52963796  0.08351708    -0.71700
V2569       V  0.52571445  0.51408482  0.08271265     1.35200
V2570       V  0.97062857  0.98659314  0.08304746     1.35200
C2571       C  0.49810107  0.55886667  0.08259491     0.77700
C2572       C  0.49846319  0.94205930  0.08331765     0.77700
C2573       C  0.49743171  0.49937591  0.04390681     0.77600
C2574       C  0.49890809  0.50130452  0.12191686     0.77600
O2575       O  0.52854566  0.80904015  0.08274578    -0.71500
O2576       O  0.52824390  0.72179775  0.08256739    -0.71800
O2577       O  0.52763351  0.76509955  0.05356154    -0.71600
O2578       O  0.52906885  0.76555299  0.11175945    -0.71600
O2579       O  0.97154212  0.73712705  0.11220527    -0.71600
O2580       O  0.97010187  0.73655357  0.05402784    -0.71600
O2581       O  0.97072286  0.69318418  0.08310815    -0.71600
O2582       O  0.97102295  0.78049770  0.08316390    -0.71700
V2583       V  0.52725371  0.76483327  0.08266499     1.35200
V2584       V  0.97195999  0.73739239  0.08311571     1.35200
C2585       C  0.99985331  0.80973642  0.08301002     0.77700
C2586       C  0.99947206  0.69255595  0.08280652     0.77700
C2587       C  0.99861921  0.75067284  0.04382867     0.77600
C2588       C  0.50053332  0.75137324  0.12195006     0.77600
O2589       O  0.72202018  0.98792336  0.05443550    -0.71500
O2590       O  0.72194793  0.98592556  0.11254731    -0.71800
O2591       O  0.72186805  0.53024418  0.08416394    -0.71600
O2592       O  0.72187822  0.94317480  0.08282836    -0.71600
O2593       O  0.77939891  0.97167293  0.08372611    -0.71600
O2594       O  0.77938408  0.55890509  0.08342137    -0.71600
O2595       O  0.77927684  0.51542320  0.11270016    -0.71600
O2596       O  0.77926608  0.51493170  0.05446016    -0.71700
V2597       V  0.72312184  0.98735268  0.08348115     1.35200
V2598       V  0.77816245  0.51465460  0.08358759     1.35200
C2599       C  0.75045195  0.50168912  0.04456220     0.77700
C2600       C  0.75046219  0.50070457  0.12263346     0.77700
C2601       C  0.75060321  0.55949329  0.08382597     0.77600
C2602       C  0.75055981  0.94245549  0.08318297     0.77600
O2603       O  0.77954701  0.80896764  0.08349884    -0.71500
O2604       O  0.77961221  0.72199214  0.08458429    -0.71800
O2605       O  0.78014599  0.76481706  0.05488963    -0.71600
O2606       O  0.77873359  0.76585883  0.11312237    -0.71600
O2607       O  0.72122751  0.73517273  0.11262454    -0.71600
O2608       O  0.72258986  0.73828681  0.05455262    -0.71600
O2609       O  0.72215659  0.69317654  0.08290179    -0.71600
O2610       O  0.72200636  0.78035885  0.08420771    -0.71700
V2611       V  0.77840178  0.76487108  0.08401141     1.35200
V2612       V  0.72309683  0.73728001  0.08358550     1.35200
C2613       C  0.75083809  0.80961486  0.08384528     0.77700
C2614       C  0.75097809  0.69269696  0.08375814     0.77700
C2615       C  0.75152870  0.75181551  0.04481258     0.77600
C2616       C  0.74969587  0.75023678  0.12282092     0.77600
O2617       O  0.53050817  0.55930446  0.91726021    -0.71500
O2618       O  0.94334098  0.97219242  0.91593676    -0.71800
O2619       O  0.98561964  0.51447166  0.94562606    -0.71600
O2620       O  0.98760451  0.51703596  0.88748630    -0.71600
O2621       O  0.51516852  0.98660157  0.88728937    -0.71600
O2622       O  0.51603922  0.98678838  0.94549190    -0.71600
O2623       O  0.97197972  0.94332169  0.91660078    -0.71600
O2624       O  0.55910218  0.53040192  0.91631572    -0.71700
V2625       V  0.98729949  0.51529391  0.91656294     1.35200
V2626       V  0.51509774  0.98727248  0.91639641     1.35200
C2627       C  0.55979946  0.55973347  0.91693496     0.77700
C2628       C  0.94270755  0.94285952  0.91629862     0.77700
C2629       C  0.50033918  0.50033400  0.95549172     0.77600
C2630       C  0.50122551  0.50201859  0.87742235     0.77600
O2631       O  0.55752458  0.77862954  0.91611190    -0.71500
O2632       O  0.97041841  0.69149001  0.91727291    -0.71800
O2633       O  0.51358736  0.73384625  0.88758018    -0.71600
O2634       O  0.51471436  0.73655969  0.94573828    -0.71600
O2635       O  0.98325564  0.76265784  0.94522771    -0.71600
O2636       O  0.98656422  0.76430877  0.88704241    -0.71600
O2637       O  0.94157308  0.72007831  0.91537632    -0.71600
O2638       O  0.52863462  0.80724735  0.91689448    -0.71700
V2639       V  0.51346149  0.73563696  0.91665902     1.35200
V2640       V  0.98560247  0.76307019  0.91614085     1.35200
C2641       C  0.55801987  0.80787117  0.91660095     0.77700
C2642       C  0.94107069  0.69084960  0.91632752     0.77700
C2643       C  0.50019604  0.74893073  0.87734438     0.77600
C2644       C  0.49888777  0.74976464  0.95536136     0.77600
O2645       O  0.80671167  0.52960934  0.91663537    -0.71500
O2646       O  0.71983534  0.94222421  0.91775489    -0.71800
O2647       O  0.76282883  0.98484268  0.88808018    -0.71600
O2648       O  0.76443998  0.98719973  0.94618886    -0.71600
O2649       O  0.73386546  0.51457505  0.94606162    -0.71600
O2650       O  0.73459856  0.51446777  0.88780685    -0.71600
O2651       O  0.69093720  0.97081962  0.91674616    -0.71600
O2652       O  0.77779160  0.55821521  0.91696748    -0.71700
V2653       V  0.76287564  0.98643067  0.91713354     1.35200
V2654       V  0.73481373  0.51402178  0.91693337     1.35200
C2655       C  0.80715831  0.55884796  0.91670310     0.77700
C2656       C  0.69044457  0.94158252  0.91727505     0.77700
C2657       C  0.74876388  0.49968997  0.87801748     0.77600
C2658       C  0.74936265  0.50137629  0.95607797     0.77600
O2659       O  0.77962373  0.80986209  0.91764567    -0.71500
O2660       O  0.69282864  0.72249314  0.91720978    -0.71800
O2661       O  0.73601951  0.76548397  0.94654108    -0.71600
O2662       O  0.73638840  0.76672506  0.88832417    -0.71600
O2663       O  0.76443886  0.73726538  0.88810362    -0.71600
O2664       O  0.76641587  0.73834439  0.94625821    -0.71600
O2665       O  0.72182436  0.69397820  0.91767790    -0.71600
O2666       O  0.80870585  0.78144503  0.91670407    -0.71700
V2667       V  0.73678039  0.76559236  0.91743119     1.35200
V2668       V  0.76476125  0.73828336  0.91718841     1.35200
C2669       C  0.80903659  0.81063158  0.91711621     0.77700
C2670       C  0.69240458  0.69327909  0.91747096     0.77700
C2671       C  0.75147408  0.75200628  0.95633787     0.77600
C2672       C  0.75035887  0.75206562  0.87824024     0.77600
O2673       O  0.51570832  0.52960539  0.55389348    -0.71500
O2674       O  0.51379109  0.52980306  0.61207545    -0.71800
O2675       O  0.55835992  0.52969349  0.58363881    -0.71600
O2676       O  0.97135329  0.52980433  0.58233615    -0.71600
O2677       O  0.94245177  0.97256529  0.58333227    -0.71600
O2678       O  0.52964615  0.97247144  0.58290089    -0.71600
O2679       O  0.98652197  0.97259516  0.61220270    -0.71600
O2680       O  0.98552446  0.97227505  0.55404089    -0.71700
V2681       V  0.51426959  0.52860939  0.58298633     1.35200
V2682       V  0.98658295  0.97357621  0.58311641     1.35200
C2683       C  0.50062304  0.50083753  0.54397378     0.77700
C2684       C  0.50008413  0.50108417  0.62206059     0.77700
C2685       C  0.55896740  0.50099960  0.58335807     0.77600
C2686       C  0.94203655  0.50114551  0.58272026     0.77600
O2687       O  0.94137263  0.71740793  0.58328369    -0.71500
O2688       O  0.52855225  0.71763343  0.58278599    -0.71800
O2689       O  0.98537211  0.71722140  0.61211231    -0.71600
O2690       O  0.98483297  0.71796485  0.55390410    -0.71600
O2691       O  0.51288218  0.77544614  0.55412747    -0.71600
O2692       O  0.51430027  0.77469458  0.61227114    -0.71600
O2693       O  0.55727824  0.77509935  0.58268285    -0.71600
O2694       O  0.96993566  0.77486757  0.58373987    -0.71700
V2695       V  0.98556434  0.71867807  0.58301360     1.40000
V2696       V  0.51305631  0.77392046  0.58319945     1.35200
C2697       C  0.94068512  0.74605670  0.58361819     0.77700
C2698       C  0.55782842  0.74633922  0.58274152     0.77700
C2699       C  0.50020568  0.74585983  0.62214812     0.77600
C2700       C  0.49862976  0.74684750  0.54406453     0.77600
O2701       O  0.69223679  0.97176932  0.58440049    -0.71500
O2702       O  0.77937500  0.97196674  0.58287411    -0.71800
O2703       O  0.73710550  0.97181797  0.61274026    -0.71600
O2704       O  0.73471289  0.97201743  0.55458580    -0.71600
O2705       O  0.76453210  0.52918347  0.55469221    -0.71600
O2706       O  0.76427053  0.52880662  0.61285672    -0.71600
O2707       O  0.80807772  0.52903923  0.58375410    -0.71600
O2708       O  0.72074152  0.52882264  0.58375044    -0.71700
V2709       V  0.73639857  0.97301485  0.58365874     1.35200
V2710       V  0.76386436  0.52786350  0.58377117     1.35200
C2711       C  0.69149295  0.50001820  0.58414184     0.77700
C2712       C  0.80863043  0.50029929  0.58314070     0.77700
C2713       C  0.75087284  0.50002528  0.62275518     0.77600
C2714       C  0.74940435  0.50051948  0.54468814     0.77600
O2715       O  0.76436457  0.77494168  0.55445686    -0.71500
O2716       O  0.76336753  0.77627489  0.61263677    -0.71800
O2717       O  0.80750555  0.77564472  0.58404372    -0.71600
O2718       O  0.72046850  0.77568489  0.58299841    -0.71600
O2719       O  0.69165530  0.71826499  0.58434912    -0.71600
O2720       O  0.77885057  0.71818327  0.58363015    -0.71600
O2721       O  0.73623500  0.71879050  0.61308736    -0.71600
O2722       O  0.73437646  0.71750123  0.55489621    -0.71700
V2723       V  0.76338998  0.77451664  0.58354888     1.35200
V2724       V  0.73580259  0.71928144  0.58398586     1.35200
C2725       C  0.74929945  0.74599606  0.54470645     0.77700
C2726       C  0.74991729  0.74774563  0.62279597     0.77700
C2727       C  0.80812996  0.74695798  0.58383192     0.77600
C2728       C  0.69116443  0.74703801  0.58360064     0.77600
O2729       O  0.97025474  0.94486165  0.75000759    -0.71500
O2730       O  0.55775452  0.53149223  0.74924096    -0.71800
O2731       O  0.51448524  0.98865566  0.77867149    -0.71600
O2732       O  0.51322184  0.98735876  0.72051667    -0.71600
O2733       O  0.98682567  0.51837322  0.72041072    -0.71600
O2734       O  0.98447950  0.51632316  0.77861445    -0.71600
O2735       O  0.52934035  0.56057285  0.75019956    -0.71600
O2736       O  0.94175991  0.97386014  0.74890734    -0.71700
V2737       V  0.51340936  0.98867292  0.74960060     1.35200
V2738       V  0.98610825  0.51668168  0.74950917     1.35200
C2739       C  0.94102957  0.94447223  0.74943698     0.77700
C2740       C  0.55855333  0.56089678  0.74981843     0.77700
C2741       C  0.49942778  0.50254971  0.78862162     0.77600
C2742       C  0.50011581  0.50283747  0.71055801     0.77600
O2743       O  0.94522999  0.71826592  0.74841760    -0.71500
O2744       O  0.53206644  0.80535346  0.75019208    -0.71800
O2745       O  0.99055770  0.76314970  0.72026930    -0.71600
O2746       O  0.98707908  0.76065587  0.77840053    -0.71600
O2747       O  0.51842992  0.73456305  0.77877179    -0.71600
O2748       O  0.51648852  0.73153904  0.72058617    -0.71600
O2749       O  0.56114677  0.77694818  0.74893291    -0.71600
O2750       O  0.97395956  0.68957709  0.75044590    -0.71700
V2751       V  0.98926648  0.76127135  0.74933057     1.35200
V2752       V  0.51700447  0.73372436  0.74967497     1.35200
C2753       C  0.94464591  0.68899494  0.74941249     0.77700
C2754       C  0.56146732  0.80615579  0.74954808     0.77700
C2755       C  0.50364149  0.74730740  0.71054963     0.77600
C2756       C  0.50261652  0.74764432  0.78855780     0.77600
O2757       O  0.69411108  0.96891980  0.74934027    -0.71500
O2758       O  0.78104050  0.55659154  0.75068813    -0.71800
O2759       O  0.73876776  0.51396964  0.72106570    -0.71600
O2760       O  0.73626456  0.51205137  0.77913758    -0.71600
O2761       O  0.76762676  0.98573859  0.77936285    -0.71600
O2762       O  0.76539968  0.98304410  0.72109447    -0.71600
O2763       O  0.80990334  0.52796807  0.74942678    -0.71600
O2764       O  0.72337714  0.94073962  0.75101162    -0.71700
V2765       V  0.73804542  0.51233837  0.75009413     1.35200
V2766       V  0.76606211  0.98494860  0.75022966     1.35200
C2767       C  0.69391742  0.93978073  0.75015818     0.77700
C2768       C  0.81040091  0.55721389  0.74994689     0.77700
C2769       C  0.75217343  0.99860724  0.71116474     0.77600
C2770       C  0.75191803  0.99890157  0.78920469     0.77600
O2771       O  0.73609981  0.76530631  0.77936521    -0.71500
O2772       O  0.73724766  0.76607506  0.72112078    -0.71800
O2773       O  0.69319831  0.72196604  0.74997933    -0.71600
O2774       O  0.77992979  0.80934585  0.75046629    -0.71600
O2775       O  0.80905027  0.78095475  0.74978131    -0.71600
O2776       O  0.72215247  0.69342508  0.75100306    -0.71600
O2777       O  0.76468408  0.73594234  0.72131515    -0.71600
O2778       O  0.76640726  0.73812296  0.77945987    -0.71700
V2779       V  0.73715733  0.76509711  0.75024091     1.35200
V2780       V  0.76505287  0.73769778  0.75038775     1.35200
C2781       C  0.75127192  0.75175445  0.78938780     0.77700
C2782       C  0.75091156  0.75085684  0.71129489     0.77700
C2783       C  0.69276583  0.69273636  0.75052217     0.77600
C2784       C  0.80935647  0.81014606  0.75005397     0.77600
C2785       C  0.87838885  0.65545983  0.74798496    -0.21100
C2786       C  0.91045473  0.65511758  0.74941129    -0.09100
C2787       C  0.90922538  0.62227917  0.75088984     0.29700
C2788       C  0.87664107  0.59072960  0.75101137    -0.21100
C2789       C  0.84457523  0.59108452  0.74970313    -0.09100
C2790       C  0.84579856  0.62390046  0.74812241     0.29700
F2791       F  0.81562039  0.62566382  0.74656352    -0.19700
H2792       H  0.87844897  0.68027692  0.74675728     0.18100
H2793       H  0.87657900  0.56590953  0.75223101     0.18100
F2794       F  0.93939133  0.62045954  0.75229038    -0.19600
C2795       C  0.62766686  0.84096489  0.75174391    -0.21100
C2796       C  0.59528185  0.84039140  0.74958125    -0.09100
C2797       C  0.59568237  0.87279980  0.74756811     0.29700
C2798       C  0.62777073  0.90486377  0.74781333    -0.21100
C2799       C  0.66015958  0.90546697  0.75003954    -0.09100
C2800       C  0.65976998  0.87304370  0.75201287     0.29700
F2801       F  0.69030677  0.87214376  0.75431316    -0.19700
H2802       H  0.62820024  0.81649698  0.75336886     0.18100
H2803       H  0.62720192  0.92931040  0.74617707     0.18100
F2804       F  0.56515622  0.87368315  0.74516222    -0.19600
C2805       C  0.90754536  0.87842793  0.75135032    -0.21100
C2806       C  0.90709890  0.91034485  0.74948261    -0.09100
C2807       C  0.87417735  0.90896595  0.74776986     0.29700
C2808       C  0.84262615  0.87633661  0.74798655    -0.21100
C2809       C  0.84312085  0.84442733  0.74986281    -0.09100
C2810       C  0.87604582  0.84584769  0.75155131     0.29700
F2811       F  0.87798466  0.81586145  0.75358637    -0.19700
H2812       H  0.93243092  0.87859137  0.75275134     0.18100
H2813       H  0.81770073  0.87610032  0.74660525     0.18100
F2814       F  0.87230583  0.93900279  0.74580428    -0.19600
C2815       C  0.62490388  0.59430509  0.75065081    -0.21100
C2816       C  0.59280981  0.59470305  0.75008294    -0.09100
C2817       C  0.59400416  0.62759836  0.74980434     0.29700
C2818       C  0.62654824  0.65915189  0.75000313    -0.21100
C2819       C  0.65864626  0.65879044  0.75051298    -0.09100
C2820       C  0.65748865  0.62590295  0.75088671     0.29700
F2821       F  0.68771774  0.62408857  0.75144579    -0.19700
H2822       H  0.62485868  0.56943150  0.75093010     0.18100
H2823       H  0.62653660  0.68399635  0.74971728     0.18100
F2824       F  0.56381833  0.62948724  0.74925120    -0.19600
C2825       C  0.75159442  0.77721535  0.65587424    -0.21100
C2826       C  0.75012251  0.74832701  0.64543743    -0.09100
C2827       C  0.74899537  0.72035452  0.65684039     0.29700
C2828       C  0.74968436  0.72159503  0.67825833    -0.21100
C2829       C  0.75065476  0.75024805  0.68867779    -0.09100
C2830       C  0.75145974  0.77805601  0.67729715     0.29700
F2831       F  0.75297923  0.80644713  0.68684857    -0.19700
H2832       H  0.75245200  0.79903293  0.64742445     0.18100
H2833       H  0.74899759  0.69987439  0.68672996     0.18100
F2834       F  0.74798494  0.69216511  0.64733011    -0.19600
C2835       C  0.75582255  0.52846479  0.67813866    -0.21100
C2836       C  0.75229341  0.99902565  0.68858733    -0.09100
C2837       C  0.74787816  0.96965424  0.67730344     0.29700
C2838       C  0.74719616  0.97024686  0.65588374    -0.21100
C2839       C  0.75138994  0.49984093  0.64541263    -0.09100
C2840       C  0.75594945  0.52933019  0.65672962     0.29700
F2841       F  0.75987072  0.55876437  0.64717511    -0.19700
H2842       H  0.75912502  0.55134326  0.68654924     0.18100
H2843       H  0.74344779  0.94717642  0.64751205     0.18100
F2844       F  0.74314613  0.94000177  0.68696978    -0.19600
C2845       C  0.90666292  0.77822552  0.58290709    -0.21100
C2846       C  0.90663617  0.74599922  0.58377714    -0.09100
C2847       C  0.87391038  0.71412650  0.58468519     0.29700
C2848       C  0.84211622  0.71472659  0.58469668    -0.21100
C2849       C  0.84215196  0.74696126  0.58381731    -0.09100
C2850       C  0.87487815  0.77882515  0.58290667     0.29700
F2851       F  0.87635946  0.81065162  0.58189908    -0.19700
H2852       H  0.93139811  0.80316064  0.58214397     0.18100
H2853       H  0.81737369  0.68979502  0.58543185     0.18100
F2854       F  0.87244144  0.68230032  0.58562804    -0.19600
C2855       C  0.62402861  0.77842588  0.58145828    -0.21100
C2856       C  0.59182233  0.74629947  0.58288494    -0.09100
C2857       C  0.59263584  0.71448102  0.58462439     0.29700
C2858       C  0.62498583  0.71501623  0.58485301    -0.21100
C2859       C  0.65719367  0.74713072  0.58339224    -0.09100
C2860       C  0.65638788  0.77896329  0.58169493     0.29700
F2861       F  0.68675978  0.81069562  0.58019471    -0.19700
H2862       H  0.62424645  0.80331136  0.58011895     0.18100
H2863       H  0.62475406  0.69012869  0.58622609     0.18100
F2864       F  0.56227592  0.68276769  0.58626132    -0.19600
C2865       C  0.01292783  0.77776445  0.65559113    -0.21100
C2866       C  0.50125125  0.74586544  0.64483593    -0.09100
C2867       C  0.49103603  0.71449874  0.65600648     0.29700
C2868       C  0.49266187  0.71530636  0.67742499    -0.21100
C2869       C  0.50362966  0.74707283  0.68803371    -0.09100
C2870       C  0.01384087  0.77835498  0.67699513     0.29700
F2871       F  0.02548271  0.80962104  0.68691468    -0.19700
H2872       H  0.02114260  0.80232021  0.64744015     0.18100
H2873       H  0.48459520  0.69094490  0.68577228     0.18100
F2874       F  0.47959035  0.68307001  0.64632345    -0.19600
C2875       C  0.87487043  0.53255981  0.58282708    -0.21100
C2876       C  0.84264508  0.50030192  0.58280524    -0.09100
C2877       C  0.84343449  0.96868810  0.58274424     0.29700
C2878       C  0.87578322  0.96922434  0.58266891    -0.21100
C2879       C  0.90805657  0.50121272  0.58258709    -0.09100
C2880       C  0.90724953  0.53313658  0.58269616     0.29700
F2881       F  0.93764070  0.56500085  0.58277168    -0.19700
H2882       H  0.87509382  0.55752526  0.58298513     0.18100
H2883       H  0.87552144  0.94423942  0.58265701     0.18100
F2884       F  0.81303565  0.93683231  0.58279555    -0.19600
C2885       C  0.59295016  0.96901421  0.58312369    -0.21100
C2886       C  0.59297956  0.50097390  0.58361896    -0.09100
C2887       C  0.62572734  0.53285125  0.58420142     0.29700
C2888       C  0.65749783  0.53222672  0.58443116    -0.21100
C2889       C  0.65744366  0.49996611  0.58409829    -0.09100
C2890       C  0.62475469  0.96843456  0.58332620     0.29700
F2891       F  0.62329932  0.93659775  0.58271903    -0.19700
H2892       H  0.56821407  0.94405782  0.58255533     0.18100
H2893       H  0.68225027  0.55718071  0.58485765     0.18100
F2894       F  0.62725276  0.56472887  0.58453263    -0.19600
C2895       C  0.49670244  0.97319584  0.67743984    -0.21100
C2896       C  0.50007726  0.50256756  0.68795918    -0.09100
C2897       C  0.00305462  0.53146087  0.67671480     0.29700
C2898       C  0.00334566  0.53089345  0.65529122    -0.21100
C2899       C  0.49990183  0.50125222  0.64471705    -0.09100
C2900       C  0.49619699  0.97231064  0.65602322     0.29700
F2901       F  0.49274519  0.94313124  0.64641314    -0.19700
H2902       H  0.49402405  0.95051364  0.68581698     0.18100
H2903       H  0.00594771  0.55357513  0.64695456     0.18100
F2904       F  0.00660705  0.56061581  0.68640886    -0.19600
C2905       C  0.76659470  0.73602428  0.84480651    -0.21100
C2906       C  0.75041057  0.75216916  0.85551176    -0.09100
C2907       C  0.73458836  0.76823029  0.84424879     0.29700
C2908       C  0.73502800  0.76797538  0.82281723    -0.21100
C2909       C  0.75121366  0.75181854  0.81211862    -0.09100
C2910       C  0.76706616  0.73579510  0.82339313     0.29700
F2911       F  0.78299384  0.71976291  0.81382870    -0.19700
H2912       H  0.77900532  0.72346176  0.85302236     0.18100
H2913       H  0.72262315  0.78052427  0.81458352     0.18100
F2914       F  0.71863353  0.78420295  0.85384511    -0.19600
C2915       C  0.77111474  0.48938484  0.84495540    -0.21100
C2916       C  0.74938478  0.49966206  0.85531769    -0.09100
C2917       C  0.72959080  0.01069219  0.84370580     0.29700
C2918       C  0.73064382  0.01045396  0.82230301    -0.21100
C2919       C  0.75153207  0.99915108  0.81191464    -0.09100
C2920       C  0.77231059  0.48931963  0.82354440     0.29700
F2921       F  0.79414729  0.47972574  0.81426197    -0.19700
H2922       H  0.78752287  0.48160305  0.85344850     0.18100
H2923       H  0.71480392  0.01901123  0.81382822     0.18100
F2924       F  0.70870114  0.02147254  0.85300377    -0.19600
C2925       C  0.87333096  0.59257773  0.91832283    -0.21100
C2926       C  0.84124687  0.59276778  0.91652755    -0.09100
C2927       C  0.84234617  0.62549121  0.91459965     0.29700
C2928       C  0.87485776  0.65712249  0.91452051    -0.21100
C2929       C  0.90694910  0.65693403  0.91635982    -0.09100
C2930       C  0.90583126  0.62420015  0.91827003     0.29700
F2931       F  0.93602971  0.62255985  0.92018948    -0.19700
H2932       H  0.87334492  0.56783646  0.91987190     0.18100
H2933       H  0.87484134  0.68186428  0.91298715     0.18100
F2934       F  0.81212865  0.62709602  0.91265159    -0.19600
C2935       C  0.59187003  0.87409437  0.91614234    -0.21100
C2936       C  0.59201914  0.84194410  0.91684606    -0.09100
C2937       C  0.62484180  0.84291941  0.91781665     0.29700
C2938       C  0.65657428  0.87534505  0.91800869    -0.21100
C2939       C  0.65643240  0.90749914  0.91723992    -0.09100
C2940       C  0.62359869  0.90651760  0.91631612     0.29700
F2941       F  0.62194964  0.93678830  0.91550994    -0.19700
H2942       H  0.56706793  0.87422515  0.91538767     0.18100
H2943       H  0.68137519  0.87521171  0.91874964     0.18100
F2944       F  0.62646740  0.81263806  0.91865836    -0.19600
C2945       C  0.52039440  0.73598659  0.84425350    -0.21100
C2946       C  0.50059789  0.74858046  0.85463407    -0.09100
C2947       C  0.98141553  0.76068169  0.84307462     0.29700
C2948       C  0.98226636  0.76024699  0.82166932    -0.21100
C2949       C  0.50215119  0.74777231  0.81127609    -0.09100
C2950       C  0.52128163  0.73558820  0.82283583     0.29700
F2951       F  0.54107127  0.72347552  0.81354581    -0.19700
H2952       H  0.53547826  0.72657693  0.85273074     0.18100
H2953       H  0.96715313  0.76964511  0.81321407     0.18100
F2954       F  0.96147790  0.77261762  0.85236422    -0.19600
C2955       C  0.87639141  0.90911439  0.91587430    -0.21100
C2956       C  0.90859381  0.90895612  0.91647379    -0.09100
C2957       C  0.90765451  0.87620321  0.91738677     0.29700
C2958       C  0.87523327  0.84453071  0.91759716    -0.21100
C2959       C  0.84303114  0.84465640  0.91696137    -0.09100
C2960       C  0.84393554  0.87740732  0.91612948     0.29700
F2961       F  0.81357926  0.87897820  0.91546953    -0.19700
H2962       H  0.87624930  0.93387873  0.91520070     0.18100
H2963       H  0.87541563  0.81978950  0.91830329     0.18100
F2964       F  0.93797265  0.87457385  0.91813957    -0.19600
C2965       C  0.65847600  0.62699703  0.91840550    -0.21100
C2966       C  0.65840771  0.65918652  0.91748728    -0.09100
C2967       C  0.62561671  0.65827247  0.91652500     0.29700
C2968       C  0.59385670  0.62590634  0.91641366    -0.21100
C2969       C  0.59389961  0.59371514  0.91723273    -0.09100
C2970       C  0.62667864  0.59459697  0.91829504     0.29700
F2971       F  0.62818909  0.56426395  0.91931189    -0.19700
H2972       H  0.68325222  0.62682407  0.91921758     0.18100
H2973       H  0.56910220  0.62611872  0.91559074     0.18100
F2974       F  0.62403551  0.68857037  0.91558974    -0.19600
C2975       C  0.01294899  0.98327299  0.82190505    -0.21100
C2976       C  0.49952200  0.50246326  0.81133540    -0.09100
C2977       C  0.48663856  0.52115530  0.82268934     0.29700
C2978       C  0.48734989  0.52088498  0.84411577    -0.21100
C2979       C  0.50082502  0.50202854  0.85470277    -0.09100
C2980       C  0.01359451  0.98287329  0.84331065     0.29700
F2981       F  0.02634907  0.96375938  0.85274988    -0.19700
H2982       H  0.02279119  0.96844728  0.81357429     0.18100
H2983       H  0.47737720  0.53561167  0.85243040     0.18100
F2984       F  0.47363488  0.53999948  0.81318454    -0.19600
C2985       C  0.77808193  0.74943309  0.01142475    -0.21100
C2986       C  0.75176505  0.75231184  0.02222587    -0.09100
C2987       C  0.72560594  0.75536676  0.01126327     0.29700
C2988       C  0.72595711  0.75565375  0.98985045    -0.21100
C2989       C  0.75189799  0.75215523  0.97898916    -0.09100
C2990       C  0.77798731  0.74891980  0.98999049     0.29700
F2991       F  0.80373407  0.74582459  0.98008750    -0.19700
H2992       H  0.79840484  0.74697943  0.01960352     0.18100
H2993       H  0.70562489  0.75819941  0.98175059     0.18100
F2994       F  0.70014584  0.75886429  0.02123359    -0.19600
C2995       C  0.78178609  0.90783454  0.08751470    -0.21100
C2996       C  0.75045855  0.90837921  0.08311444    -0.09100
C2997       C  0.71932752  0.87614482  0.07885257     0.29700
C2998       C  0.71966201  0.84422269  0.07922276    -0.21100
C2999       C  0.75096059  0.84368190  0.08369509    -0.09100
C3000       C  0.78214083  0.87593022  0.08783175     0.29700
F3001       F  0.81290715  0.87671719  0.09253977    -0.19700
H3002       H  0.80609887  0.93217299  0.09093248     0.18100
H3003       H  0.69536980  0.81986716  0.07579770     0.18100
F3004       F  0.68860773  0.87537159  0.07404059    -0.19600
C3005       C  0.78271162  0.62572284  0.08472493    -0.21100
C3006       C  0.75052717  0.59347810  0.08386618    -0.09100
C3007       C  0.71855051  0.59422476  0.08299554     0.29700
C3008       C  0.71899543  0.62651148  0.08296359    -0.21100
C3009       C  0.75116473  0.65876067  0.08381408    -0.09100
C3010       C  0.78315514  0.65802502  0.08472679     0.29700
F3011       F  0.81496679  0.68841925  0.08562461    -0.19700
H3012       H  0.80772567  0.62601510  0.08543192     0.18100
H3013       H  0.69397063  0.62619385  0.08225292     0.18100
F3014       F  0.68673734  0.56384090  0.08206355    -0.19600
C3015       C  0.77957564  0.00487824  0.01087474    -0.21100
C3016       C  0.75033699  0.50232841  0.02192126    -0.09100
C3017       C  0.72148037  0.50039540  0.01103879     0.29700
C3018       C  0.72163017  0.50074537  0.98961033    -0.21100
C3019       C  0.75011036  0.50225810  0.97867727    -0.09100
C3020       C  0.77934256  0.00439775  0.98944779     0.29700
F3021       F  0.80777963  0.00688684  0.97935436    -0.19700
H3022       H  0.80219209  0.00666755  0.01890596     0.18100
H3023       H  0.69914436  0.49918422  0.98154139     0.18100
F3024       F  0.69334784  0.49870293  0.02106969    -0.19600
C3025       C  0.03006192  0.76164037  0.01027057    -0.21100
C3026       C  0.49824876  0.75031742  0.02111658    -0.09100
C3027       C  0.46655514  0.73883321  0.01000161     0.29700
C3028       C  0.46703616  0.73926078  0.98855963    -0.21100
C3029       C  0.49878260  0.75017265  0.97788108    -0.09100
C3030       C  0.03031872  0.76127915  0.98885893     0.29700
F3031       F  0.06153165  0.77270479  0.97885516    -0.19700
H3032       H  0.05483444  0.77063983  0.01836287     0.18100
H3033       H  0.44246780  0.73043710  0.98025992     0.18100
F3034       F  0.43511630  0.72730342  0.01975478    -0.19600
C3035       C  0.53097999  0.90825893  0.08328881    -0.21100
C3036       C  0.99861277  0.90810765  0.08339795    -0.09100
C3037       C  0.96675329  0.87532000  0.08345037     0.29700
C3038       C  0.96748403  0.84362452  0.08333522    -0.21100
C3039       C  0.99983543  0.84375734  0.08316041    -0.09100
C3040       C  0.53170961  0.87654392  0.08316318     0.29700
F3041       F  0.56366898  0.87815357  0.08302951    -0.19700
H3042       H  0.55592328  0.93303782  0.08324096     0.18100
H3043       H  0.94252779  0.81885940  0.08336735     0.18100
F3044       F  0.93478111  0.87368089  0.08362451    -0.19600
C3045       C  0.53040526  0.62503169  0.08109166    -0.21100
C3046       C  0.99817153  0.59292942  0.08260677    -0.09100
C3047       C  0.96640344  0.59395159  0.08421951     0.29700
C3048       C  0.96711635  0.62637776  0.08425367    -0.21100
C3049       C  0.99935727  0.65847728  0.08273687    -0.09100
C3050       C  0.53112031  0.65745451  0.08115943     0.29700
F3051       F  0.56296325  0.68768591  0.07959613    -0.19700
H3052       H  0.55527299  0.62512670  0.07983651     0.18100
H3053       H  0.94225520  0.62629347  0.08553233     0.18100
F3054       F  0.93456379  0.56372701  0.08584378    -0.19600
C3055       C  0.97291789  0.00186806  0.98857894    -0.21100
C3056       C  0.49934238  0.49932013  0.97812099    -0.09100
C3057       C  0.52471212  0.49548218  0.98947340     0.29700
C3058       C  0.52393001  0.49565375  0.01088114    -0.21100
C3059       C  0.49739705  0.49871616  0.02132781    -0.09100
C3060       C  0.97161990  0.00118442  0.00999064     0.29700
F3061       F  0.94559569  0.00423405  0.01958276    -0.19700
H3062       H  0.95284471  0.00438568  0.98016053     0.18100
H3063       H  0.54396848  0.49311471  0.01932960     0.18100
F3064       F  0.55076405  0.49239120  0.97994966    -0.19600
C3065       C  0.73463048  0.71422884  0.48942229    -0.21100
C3066       C  0.74951503  0.74641118  0.47860083    -0.09100
C3067       C  0.76429008  0.77833272  0.48974493     0.29700
C3068       C  0.76411269  0.77785430  0.51115539    -0.21100
C3069       C  0.74920177  0.74569714  0.52198594    -0.09100
C3070       C  0.73440297  0.71375385  0.51085743     0.29700
F3071       F  0.71977747  0.68198977  0.52058772    -0.19700
H3072       H  0.72306517  0.68925344  0.48128880     0.18100
H3073       H  0.77563105  0.80284848  0.51926743     0.18100
F3074       F  0.77883910  0.81012831  0.48005440    -0.19600
C3075       C  0.73066921  0.97010610  0.48925898    -0.21100
C3076       C  0.75005431  0.50223715  0.47864009    -0.09100
C3077       C  0.76902228  0.53380836  0.48992937     0.29700
C3078       C  0.76852707  0.53297874  0.51134752    -0.21100
C3079       C  0.74919277  0.50080316  0.52198704    -0.09100
C3080       C  0.73006609  0.96938192  0.51066811     0.29700
F3081       F  0.71044165  0.93775332  0.52024985    -0.19700
H3082       H  0.71555370  0.94539954  0.48102644     0.18100
H3083       H  0.78354576  0.55766219  0.51961511     0.18100
F3084       F  0.78838344  0.56550228  0.48036891    -0.19600
C3085       C  0.50504158  0.77731013  0.48889319    -0.21100
C3086       C  0.49758733  0.74649793  0.47804604    -0.09100
C3087       C  0.99044162  0.71588136  0.48912041     0.29700
C3088       C  0.99066285  0.71623116  0.51053670    -0.21100
C3089       C  0.49819724  0.74704354  0.52138242    -0.09100
C3090       C  0.50533100  0.77767655  0.51032378     0.29700
F3091       F  0.51203280  0.80785422  0.52014609    -0.19700
H3092       H  0.51046785  0.80119520  0.48077540     0.18100
H3093       H  0.98532989  0.69237274  0.51865106     0.18100
F3094       F  0.98392211  0.68574084  0.47933030    -0.19600
C3095       C  0.90560936  0.77861700  0.41300926    -0.21100
C3096       C  0.90597618  0.74671682  0.41515816    -0.09100
C3097       C  0.87342803  0.71483199  0.41707950     0.29700
C3098       C  0.84148322  0.71513424  0.41713700    -0.21100
C3099       C  0.84113105  0.74706714  0.41528635    -0.09100
C3100       C  0.87362998  0.77890534  0.41302922     0.29700
F3101       F  0.87467785  0.81038255  0.41076049    -0.19700
H3102       H  0.93017617  0.80352134  0.41133956     0.18100
H3103       H  0.81693078  0.69022271  0.41883045     0.18100
F3104       F  0.87227956  0.68327395  0.41911686    -0.19600
C3105       C  0.59168742  0.71601749  0.41244553    -0.21100
C3106       C  0.59120912  0.74707550  0.41762838    -0.09100
C3107       C  0.62323847  0.77748590  0.42310100     0.29700
C3108       C  0.65498276  0.77677901  0.42306731    -0.21100
C3109       C  0.65548024  0.74580173  0.41773882    -0.09100
C3110       C  0.62341302  0.71528647  0.41246671     0.29700
F3111       F  0.62271189  0.68495672  0.40683962    -0.19700
H3112       H  0.56746605  0.69225798  0.40810182     0.18100
H3113       H  0.67924516  0.80054009  0.42735806     0.18100
F3114       F  0.62395770  0.80781519  0.42873858    -0.19600
C3115       C  0.01919006  0.53302456  0.51052872    -0.21100
C3116       C  0.50042001  0.50087990  0.52126171    -0.09100
C3117       C  0.48112978  0.96916971  0.51010463     0.29700
C3118       C  0.48108181  0.96979830  0.48868922    -0.21100
C3119       C  0.50013745  0.50206592  0.47790462    -0.09100
C3120       C  0.01914013  0.53373061  0.48911185     0.29700
F3121       F  0.03796765  0.56542340  0.47947016    -0.19700
H3122       H  0.03408277  0.55780350  0.51872192     0.18100
H3123       H  0.46613244  0.94499847  0.48052247     0.18100
F3124       F  0.46229616  0.93749746  0.51976736    -0.19600
C3125       C  0.87527346  0.96994160  0.41361298    -0.21100
C3126       C  0.90749728  0.50224221  0.41606058    -0.09100
C3127       C  0.90661927  0.53392015  0.41837367     0.29700
C3128       C  0.87424723  0.53335434  0.41852798    -0.21100
C3129       C  0.84207293  0.50133660  0.41641028    -0.09100
C3130       C  0.84289704  0.96940383  0.41372612     0.29700
F3131       F  0.81258094  0.93787805  0.41129829    -0.19700
H3132       H  0.87511451  0.94517752  0.41167626     0.18100
H3133       H  0.87443027  0.55813889  0.42041116     0.18100
F3134       F  0.93692258  0.56548090  0.42072293    -0.19600
C3135       C  0.62557911  0.97027949  0.41756645    -0.21100
C3136       C  0.65772073  0.50271964  0.41708754    -0.09100
C3137       C  0.65681467  0.53456298  0.41656754     0.29700
C3138       C  0.62436955  0.53384831  0.41640115    -0.21100
C3139       C  0.59217695  0.50152437  0.41675144    -0.09100
C3140       C  0.59313258  0.96953292  0.41742698     0.29700
F3141       F  0.56281728  0.93761796  0.41785209    -0.19700
H3142       H  0.62543008  0.94535668  0.41795466     0.18100
H3143       H  0.62452035  0.55877073  0.41595100     0.18100
F3144       F  0.68715627  0.56646015  0.41618539    -0.19600
C3145       C  0.71833497  0.72647275  0.17785387    -0.21100
C3146       C  0.74879058  0.75038399  0.18878898    -0.09100
C3147       C  0.77948496  0.77408759  0.17784822     0.29700
C3148       C  0.77955703  0.77370144  0.15644181    -0.21100
C3149       C  0.74911625  0.74984033  0.14548997    -0.09100
C3150       C  0.71842492  0.72603425  0.15642896     0.29700
F3151       F  0.68868146  0.70186673  0.14650264    -0.19700
H3152       H  0.69447316  0.70773262  0.18590658     0.18100
H3153       H  0.80344792  0.79244421  0.14841616     0.18100
F3154       F  0.80927883  0.79815372  0.18777040    -0.19600
C3155       C  0.71794701  0.72136732  0.32272471    -0.21100
C3156       C  0.74718877  0.74807018  0.31209002    -0.09100
C3157       C  0.77616689  0.77404955  0.32327450     0.29700
C3158       C  0.77561402  0.77341392  0.34466883    -0.21100
C3159       C  0.74664916  0.74646857  0.35528058    -0.09100
C3160       C  0.71779198  0.72026240  0.34415384     0.29700
F3161       F  0.68911757  0.69414213  0.35397276    -0.19700
H3162       H  0.69537042  0.70106457  0.31442889     0.18100
H3163       H  0.79812563  0.79378758  0.35297758     0.18100
F3164       F  0.80476318  0.80047911  0.31357651    -0.19600
C3165       C  0.78099717  0.90708041  0.25156604    -0.21100
C3166       C  0.74900484  0.90758959  0.25081449    -0.09100
C3167       C  0.71681627  0.87507910  0.25015826     0.29700
C3168       C  0.71688182  0.84302678  0.25020868    -0.21100
C3169       C  0.74887547  0.84251668  0.25089573    -0.09100
C3170       C  0.78106283  0.87502427  0.25160384     0.29700
F3171       F  0.81272675  0.87604237  0.25233310    -0.19700
H3172       H  0.80616025  0.93160285  0.25209525     0.18100
H3173       H  0.69171799  0.81850736  0.24965799     0.18100
F3174       F  0.68514714  0.87405192  0.24944549    -0.19600
C3175       C  0.71773426  0.59282076  0.25326252    -0.21100
C3176       C  0.74974194  0.59300729  0.24990294    -0.09100
C3177       C  0.78087927  0.62561467  0.24646734     0.29700
C3178       C  0.77985413  0.65716036  0.24656892    -0.21100
C3179       C  0.74788221  0.65698638  0.25000127    -0.09100
C3180       C  0.71669773  0.62436588  0.25332695     0.29700
F3181       F  0.68524326  0.62282806  0.25694075    -0.19700
H3182       H  0.69335010  0.56815913  0.25600057     0.18100
H3183       H  0.80423615  0.68183013  0.24384504     0.18100
F3184       F  0.81232665  0.62716374  0.24282453    -0.19600
C3185       C  0.71954961  0.99128328  0.17774491    -0.21100
C3186       C  0.75090050  0.00070820  0.18860261    -0.09100
C3187       C  0.78214872  0.51007573  0.17755804     0.29700
C3188       C  0.78178307  0.51011090  0.15612950    -0.21100
C3189       C  0.75052206  0.00081132  0.14524749    -0.09100
C3190       C  0.71926397  0.99136655  0.15632940     0.29700
F3191       F  0.68846682  0.98274847  0.14654638    -0.19700
H3192       H  0.69512741  0.98404572  0.18584483     0.18100
H3193       H  0.80610773  0.51713333  0.14797580     0.18100
F3194       F  0.81298793  0.51872770  0.18730665    -0.19600
C3195       C  0.72107762  0.97431393  0.32282068    -0.21100
C3196       C  0.74952832  0.00154014  0.31198932    -0.09100
C3197       C  0.77672233  0.53016859  0.32298802     0.29700
C3198       C  0.77616602  0.53022468  0.34440844    -0.21100
C3199       C  0.74917921  0.50158164  0.35525134    -0.09100
C3200       C  0.72090975  0.97401385  0.34424672     0.29700
F3201       F  0.69295684  0.94724766  0.35419213    -0.19700
H3202       H  0.69913796  0.95295206  0.31468317     0.18100
H3203       H  0.79714935  0.55251134  0.35253435     0.18100
F3204       F  0.80323455  0.55833398  0.31303863    -0.19600
C3205       C  0.53224579  0.76391194  0.17719625    -0.21100
C3206       C  0.50021218  0.75087147  0.18804393    -0.09100
C3207       C  0.96838054  0.73803780  0.17693355     0.29700
C3208       C  0.96881243  0.73831053  0.15551773    -0.21100
C3209       C  0.50083619  0.75136881  0.14466595    -0.09100
C3210       C  0.53267492  0.76418852  0.15576872     0.29700
F3211       F  0.56426853  0.77678231  0.14601646    -0.19700
H3212       H  0.55715009  0.77387184  0.18530959     0.18100
H3213       H  0.94389775  0.72834286  0.14741402     0.18100
F3214       F  0.93676264  0.72539018  0.18666605    -0.19600
C3215       C  0.97449289  0.72133201  0.32191550    -0.21100
C3216       C  0.50155649  0.75041044  0.31142264    -0.09100
C3217       C  0.52835511  0.77852742  0.32270566     0.29700
C3218       C  0.52764390  0.77763367  0.34413712    -0.21100
C3219       C  0.50070696  0.74839629  0.35465464    -0.09100
C3220       C  0.97421390  0.72004647  0.34331707     0.29700
F3221       F  0.94757548  0.69141841  0.35286895    -0.19700
H3222       H  0.95369645  0.69932853  0.31350531     0.18100
H3223       H  0.54834828  0.79974522  0.35252181     0.18100
F3224       F  0.55467830  0.80727351  0.31305751    -0.19600
C3225       C  0.96939713  0.87656926  0.24827402    -0.21100
C3226       C  0.00155820  0.90881761  0.24940651    -0.09100
C3227       C  0.53349868  0.90805748  0.25058726     0.29700
C3228       C  0.53299841  0.87571402  0.25066062    -0.21100
C3229       C  0.50079889  0.84346518  0.24959974    -0.09100
C3230       C  0.96889511  0.84426072  0.24835941     0.29700
F3231       F  0.93710719  0.81390592  0.24710673    -0.19700
H3232       H  0.94439369  0.87626069  0.24730080     0.18100
H3233       H  0.55797754  0.87597203  0.25163705     0.18100
F3234       F  0.56527351  0.93844646  0.25177502    -0.19600
C3235       C  0.96874093  0.62645503  0.25298384    -0.21100
C3236       C  0.50070459  0.65838047  0.24989750    -0.09100
C3237       C  0.53210333  0.65715845  0.24690777     0.29700
C3238       C  0.53134104  0.62472516  0.24701320    -0.21100
C3239       C  0.99940036  0.59278324  0.25007334    -0.09100
C3240       C  0.96798633  0.59398641  0.25312034     0.29700
F3241       F  0.93655007  0.56393750  0.25641567    -0.19700
H3242       H  0.94417700  0.62657407  0.25543045     0.18100
H3243       H  0.55593509  0.62467328  0.24455696     0.18100
F3244       F  0.56355781  0.68718173  0.24360818    -0.19600
C3245       C  0.53090484  0.52142360  0.17704977    -0.21100
C3246       C  0.49924151  0.50091451  0.18796138    -0.09100
C3247       C  0.96767452  0.98092619  0.17694176     0.29700
C3248       C  0.96785390  0.98140030  0.15553141    -0.21100
C3249       C  0.49934783  0.50161233  0.14461444    -0.09100
C3250       C  0.53107097  0.52189928  0.15562797     0.29700
F3251       F  0.56228353  0.54244363  0.14579436    -0.19700
H3252       H  0.55567486  0.53735702  0.18511147     0.18100
H3253       H  0.94307531  0.96543705  0.14748448     0.18100
F3254       F  0.93646430  0.96031383  0.18675991    -0.19600
C3255       C  0.97280846  0.97321857  0.34381785    -0.21100
C3256       C  0.50077146  0.50117503  0.35454060    -0.09100
C3257       C  0.52873055  0.52866024  0.34347611     0.29700
C3258       C  0.52880830  0.52788761  0.32205583    -0.21100
C3259       C  0.50072190  0.50015079  0.31131681    -0.09100
C3260       C  0.97248646  0.97291523  0.32240006     0.29700
F3261       F  0.94474103  0.94578168  0.31255693    -0.19700
H3262       H  0.95075053  0.95206151  0.35202133     0.18100
H3263       H  0.55060423  0.54931075  0.31384391     0.18100
F3264       F  0.55633836  0.55590004  0.35333782    -0.19600
loop_ 
_geom_bond_atom_site_label_1 
_geom_bond_atom_site_label_2 
_geom_bond_distance 
_geom_bond_site_symmetry_2 
_ccdc_geom_bond_type 
O1          V825   1.900       .  S
O1         C1643   1.265       .  A
O2            V9   1.896       .  S
O2         C1644   1.264   1_455  A
O3            V9   1.900       .  S
O3           C13   1.265       .  A
O4            V9   1.900       .  S
O4           C14   1.265   1_455  A
O5           V10   1.896       .  S
O5         C2462   1.264       .  A
O6           V10   1.895       .  S
O6         C2461   1.263       .  A
O7          V826   1.902   1_545  S
O7           C12   1.265       .  A
O8           V10   1.899       .  S
O8           C11   1.265       .  A
V9          O817   1.900   1_545  S
V9         V2458   2.085   1_445  T
V10         O823   1.903       .  S
V10        V2457   2.085       .  T
C11        O1633   1.265       .  A
C11         C778   1.483       .  S
C12        O1634   1.264       .  A
C12         C791   1.483       .  S
C13        O2454   1.263   1_445  A
C13         C811   1.476       .  S
C14        O2453   1.264   1_545  A
C14         C798   1.481       .  S
O15          V23   1.901       .  S
O15          C25   1.265       .  A
O16          V23   1.900       .  S
O16          C26   1.265       .  A
O17          V23   1.900       .  S
O17          C27   1.264       .  A
O18          V23   1.899       .  S
O18          C28   1.265       .  A
O19          V24   1.898       .  S
O19        C1660   1.264       .  A
O20          V24   1.897       .  S
O20        C1659   1.264       .  A
O21          V24   1.899       .  S
O21        C1658   1.265       .  A
O22          V24   1.898       .  S
O22        C1657   1.264       .  A
V23        V1656   2.085   1_455  T
V24        V1655   2.085       .  T
C25        O1654   1.264   1_455  A
C25         C788   1.482       .  S
C26        O1653   1.265   1_455  A
C26         C781   1.483       .  S
C27        O1652   1.264   1_455  A
C27         C768   1.475       .  S
C28        O1651   1.264   1_455  A
C28         C758   1.482   1_455  S
O29         V853   1.905       .  S
O29          C39   1.267       .  A
O30          V37   1.902       .  S
O30          C40   1.266       .  A
O31          V37   1.896       .  S
O31         C857   1.264       .  A
O32          V37   1.896       .  S
O32         C858   1.264       .  A
O33          V38   1.900       .  S
O33          C42   1.266       .  A
O34          V38   1.900       .  S
O34          C41   1.265       .  A
O35         V854   1.896   1_545  S
O35          C40   1.264       .  A
O36          V38   1.894       .  S
O36          C39   1.263       .  A
V37         O845   1.904   1_545  S
V37         V854   2.085   1_545  T
V38         O851   1.896       .  S
V38         V853   2.085       .  T
C39         C718   1.484       .  S
C40         C728   1.482       .  S
C41         O847   1.264       .  A
C41         C748   1.475       .  S
C42         O848   1.264       .  A
C42         C738   1.481       .  S
O43          V51   1.897       .  S
O43          C53   1.264       .  A
O44          V51   1.895       .  S
O44          C54   1.263       .  A
O45          V51   1.896       .  S
O45          C55   1.264       .  A
O46          V51   1.896       .  S
O46          C56   1.264       .  A
O47          V52   1.900       .  S
O47          C56   1.265       .  A
O48          V52   1.899       .  S
O48          C55   1.264       .  A
O49          V52   1.904       .  S
O49          C54   1.267       .  A
O50          V52   1.901       .  S
O50          C53   1.265       .  A
V51          V52   2.086       .  T
C53         C731   1.482       .  S
C54         C721   1.484       .  S
C55         C708   1.476       .  S
C56         C698   1.478       .  S
O57          V65   1.898       .  S
O57        C2515   1.265       .  A
O58          V65   1.898       .  S
O58        C2516   1.264       .  A
O59        V1697   1.898   1_455  S
O59         C885   1.265       .  A
O60          V65   1.897       .  S
O60         C886   1.265       .  A
O61        V1698   1.898       .  S
O61          C70   1.265       .  A
O62          V66   1.895       .  S
O62          C69   1.264       .  A
O63          V66   1.898       .  S
O63          C68   1.264       .  A
O64          V66   1.898       .  S
O64          C67   1.264   1_455  A
V65        O1691   1.898       .  S
V65        V2514   2.086       .  T
V66        O1693   1.898   1_455  S
V66        V2513   2.086   1_445  T
C67        O2505   1.265   1_545  A
C67         C671   1.481       .  S
C68        O2506   1.264   1_445  A
C68         C808   1.475       .  S
C69         O875   1.265   1_545  A
C69         C691   1.480       .  S
C70         O876   1.265   1_545  A
C70         C678   1.481       .  S
O71          V79   1.900       .  S
O71          C81   1.265   1_455  A
O72          V79   1.900       .  S
O72          C82   1.265       .  A
O73        V1711   1.902       .  S
O73          C83   1.266       .  A
O74          V79   1.899       .  S
O74          C84   1.265       .  A
O75        V1712   1.896   1_455  S
O75          C84   1.264       .  A
O76          V80   1.895       .  S
O76          C83   1.264       .  A
O77          V80   1.897       .  S
O77        C1714   1.264       .  A
O78          V80   1.898       .  S
O78        C1713   1.264       .  A
V79        O1705   1.902   1_455  S
V79        V1712   2.084   1_455  T
V80        O1707   1.896       .  S
V80        V1711   2.084       .  T
C81        O1710   1.264       .  A
C81         C638   1.481       .  S
C82        O1709   1.264   1_455  A
C82         C771   1.477       .  S
C83         C648   1.482       .  S
C84         C658   1.480       .  S
O85          V93   1.899       .  S
O85         C911   1.265       .  A
O86          V93   1.895       .  S
O86         C912   1.264       .  A
O87          V93   1.897       .  S
O87         C913   1.264       .  A
O88          V93   1.897       .  S
O88         C914   1.265       .  A
O89          V94   1.898       .  S
O89          C98   1.264       .  A
O90          V94   1.898       .  S
O90          C97   1.264       .  A
O91          V94   1.899       .  S
O91          C96   1.265       .  A
O92          V94   1.897       .  S
O92          C95   1.265       .  A
V93         V910   2.085       .  T
V94         V909   2.086   1_545  T
C95         O901   1.265   1_545  A
C95         C681   1.481       .  S
C96         O902   1.264   1_545  A
C96         C688   1.480       .  S
C97         O903   1.264   1_545  A
C97         C751   1.475       .  S
C98         O904   1.265   1_545  A
C98         C628   1.481       .  S
O99         V107   1.901       .  S
O99         C109   1.266       .  A
O100        V107   1.898       .  S
O100        C110   1.264       .  A
O101        V107   1.898       .  S
O101        C111   1.264       .  A
O102        V107   1.900       .  S
O102        C112   1.265       .  A
O103        V108   1.897       .  S
O103        C112   1.264       .  A
O104        V108   1.897       .  S
O104        C111   1.264       .  A
O105        V108   1.898       .  S
O105        C110   1.265       .  A
O106        V108   1.897       .  S
O106        C109   1.264       .  A
V107        V108   2.086       .  T
C109        C651   1.482       .  S
C110        C661   1.479       .  S
C111        C711   1.472       .  S
C112        C618   1.482       .  S
O113        V121   1.902       .  S
O113        C123   1.266   1_455  A
O114        V937   1.899       .  S
O114        C124   1.265   1_455  A
O115        V121   1.895       .  S
O115        C125   1.263   1_445  A
O116        V121   1.896       .  S
O116        C126   1.264   1_455  A
O117        V122   1.899       .  S
O117       C2574   1.265       .  A
O118        V122   1.900       .  S
O118       C2573   1.265       .  A
O119        V122   1.898       .  S
O119       C1756   1.265       .  A
O120        V938   1.897   1_545  S
O120       C1755   1.264       .  A
V121        O930   1.900   1_545  S
V121       V2570   2.085   1_445  T
V122        O936   1.897       .  S
V122       V2569   2.085       .  T
C123       O1752   1.264       .  A
C123       C2230   1.483       .  S
C124       O1751   1.265       .  A
C124       C2220   1.483       .  S
C125       O2566   1.265       .  A
C125        C611   1.473       .  S
C126       O2565   1.265   1_545  A
C126        C801   1.481       .  S
O127        V135   1.899       .  S
O127       C1769   1.264   1_455  A
O128        V135   1.897       .  S
O128       C1770   1.264   1_455  A
O129        V135   1.897       .  S
O129       C1771   1.265   1_455  A
O130        V135   1.898       .  S
O130        C140   1.264   1_455  A
O131        V136   1.899       .  S
O131       C1772   1.265       .  A
O132        V136   1.900       .  S
O132        C139   1.264       .  A
O133        V136   1.901       .  S
O133        C138   1.266       .  A
O134        V136   1.900       .  S
O134        C137   1.265       .  A
V135       V1768   2.085   1_455  T
V136       V1767   2.085       .  T
C137       O1759   1.264       .  A
C137        C591   1.483       .  S
C138       O1760   1.264       .  A
C138        C601   1.483       .  S
C139       O1761   1.265       .  A
C139       C2210   1.479       .  S
C140       O1763   1.265       .  A
C140        C761   1.482       .  S
O141        V149   1.896       .  S
O141        C967   1.264       .  A
O142        V149   1.897       .  S
O142        C968   1.264       .  A
O143        V965   1.895   1_545  S
O143        C153   1.264       .  A
O144        V149   1.899       .  S
O144        C154   1.265       .  A
O145        V966   1.901       .  S
O145        C154   1.265       .  A
O146        V150   1.903       .  S
O146        C153   1.266       .  A
O147        V150   1.900       .  S
O147        C152   1.265       .  A
O148        V150   1.901       .  S
O148        C151   1.265       .  A
V149        O959   1.895       .  S
V149        V966   2.085       .  T
V150        O961   1.901   1_545  S
V150        V965   2.085   1_545  T
C151        O957   1.264   1_545  A
C151        C568   1.477       .  S
C152        O958   1.264   1_545  A
C152       C1557   1.481       .  S
C153        C558   1.483       .  S
C154        C548   1.483       .  S
O155        V163   1.897       .  S
O155        C165   1.264       .  A
O156        V163   1.896       .  S
O156        C166   1.263       .  A
O157        V163   1.901       .  S
O157        C167   1.265       .  A
O158        V163   1.900       .  S
O158        C168   1.265       .  A
O159        V164   1.896       .  S
O159        C168   1.264       .  A
O160        V164   1.895       .  S
O160        C167   1.263       .  A
O161        V164   1.903       .  S
O161        C166   1.266       .  A
O162        V164   1.902       .  S
O162        C165   1.266       .  A
V163        V164   2.086       .  T
C165        C551   1.482       .  S
C166        C561   1.483       .  S
C167        C538   1.474       .  S
C168        C701   1.479       .  S
O169       V1809   1.900   1_455  S
O169        C179   1.266       .  A
O170        V993   1.899       .  S
O170        C180   1.265       .  A
O171        V177   1.897       .  S
O171       C1813   1.264       .  A
O172        V177   1.898       .  S
O172       C1814   1.264       .  A
O173        V178   1.899       .  S
O173        C998   1.265       .  A
O174        V178   1.898       .  S
O174        C997   1.264       .  A
O175       V1810   1.897       .  S
O175        C180   1.264       .  A
O176        V994   1.898   1_545  S
O176        C179   1.264       .  A
V177       O1801   1.900       .  S
V177        O986   1.899   1_545  S
V177       V2626   2.085   1_545  T
V178       O1807   1.897   1_455  S
V178        O992   1.898       .  S
V178       V2625   2.085   1_455  T
C179        C521   1.483       .  S
C180        C508   1.482       .  S
C181       O1803   1.264   1_455  A
C181        O990   1.264   1_545  A
C181        C608   1.477   1_445  S
C182       O1804   1.264   1_455  A
C182        O989   1.265   1_545  A
C182        C531   1.482       .  S
O183        V191   1.897       .  S
O183        C193   1.264       .  A
O184       V1823   1.900       .  S
O184        C194   1.265       .  A
O185        V191   1.899       .  S
O185        C195   1.265       .  A
O186        V191   1.897       .  S
O186        C196   1.264   1_455  A
O187        V192   1.899       .  S
O187       C1828   1.264       .  A
O188        V192   1.898       .  S
O188       C1827   1.264       .  A
O189        V192   1.897       .  S
O189        C194   1.265       .  A
O190       V1824   1.901   1_455  S
O190        C193   1.266       .  A
V191       O1816   1.900   1_455  S
V191       V1824   2.085   1_455  T
V192       O1822   1.901       .  S
V192       V1823   2.085       .  T
C193        C488   1.483       .  S
C194        C481   1.482       .  S
C195       O1820   1.264   1_455  A
C195        C498   1.482       .  S
C196       O1819   1.264       .  A
C196        C581   1.471       .  S
O197       V1021   1.897   1_545  S
O197        C207   1.265       .  A
O198        V205   1.901       .  S
O198        C208   1.266       .  A
O199        V205   1.897       .  S
O199       C1025   1.264       .  A
O200        V205   1.896       .  S
O200       C1026   1.263       .  A
O201        V206   1.901       .  S
O201        C210   1.265       .  A
O202        V206   1.900       .  S
O202        C209   1.265   1_545  A
O203       V1022   1.898       .  S
O203        C208   1.264       .  A
O204        V206   1.899       .  S
O204        C207   1.265       .  A
V205       O1013   1.897       .  S
V205       V1022   2.086       .  T
V206       O1019   1.897   1_545  S
V206       V1021   2.086   1_545  T
C207        C478   1.482       .  S
C208        C491   1.483       .  S
C209       O1015   1.264       .  A
C209        C468   1.481       .  S
C210       O1016   1.263   1_545  A
C210        C571   1.474       .  S
O211        V219   1.899       .  S
O211        C221   1.264       .  A
O212        V219   1.897       .  S
O212        C222   1.264       .  A
O213        V219   1.899       .  S
O213        C223   1.265       .  A
O214        V219   1.899       .  S
O214        C224   1.265       .  A
O215        V220   1.898       .  S
O215        C224   1.265       .  A
O216        V220   1.898       .  S
O216        C223   1.264       .  A
O217        V220   1.902       .  S
O217        C222   1.266       .  A
O218        V220   1.898       .  S
O218        C221   1.265       .  A
V219        V220   2.085       .  T
C221        C511   1.482       .  S
C222        C518   1.483       .  S
C223        C541   1.478       .  S
C224        C458   1.483       .  S
O225        V233   1.899       .  S
O225        C235   1.265       .  A
O226        V233   1.899       .  S
O226        C236   1.265       .  A
O227        V233   1.896       .  S
O227        C237   1.264       .  A
O228       V1865   1.895       .  S
O228        C238   1.263       .  A
O229        V234   1.899       .  S
O229       C1054   1.265       .  A
O230       V1866   1.899   1_455  S
O230       C1053   1.265       .  A
O231        V234   1.898       .  S
O231       C2684   1.264       .  A
O232        V234   1.898       .  S
O232       C2683   1.264       .  A
V233       O1860   1.895   1_455  S
V233       V2682   2.085   1_445  T
V234       O1862   1.899       .  S
V234       V2681   2.085       .  T
C235       O2680   1.264   1_445  A
C235        C668   1.482       .  S
C236       O2679   1.264   1_445  A
C236        C451   1.478   1_455  S
C237       O1046   1.265   1_545  A
C237        C438   1.481       .  S
C238       O1045   1.265   1_545  A
C238        C431   1.480       .  S
O239        V247   1.896       .  S
O239        C249   1.264       .  A
O240       V1879   1.894   1_455  S
O240        C250   1.263       .  A
O241        V247   1.900       .  S
O241       C1883   1.265       .  A
O242        V247   1.900       .  S
O242       C1884   1.265       .  A
O243        V248   1.897       .  S
O243        C252   1.264   1_455  A
O244        V248   1.896       .  S
O244        C251   1.264       .  A
O245        V248   1.901       .  S
O245        C250   1.266       .  A
O246       V1880   1.899       .  S
O246        C249   1.265       .  A
V247       O1872   1.894       .  S
V247       V1880   2.086       .  T
V248       O1878   1.899   1_455  S
V248       V1879   2.086   1_455  T
C249        C398   1.481       .  S
C250        C408   1.480       .  S
C251       O1873   1.265   1_455  A
C251        C418   1.480       .  S
C252       O1874   1.265       .  A
C252        C641   1.480       .  S
O253        V261   1.897       .  S
O253       C1079   1.264       .  A
O254        V261   1.895       .  S
O254       C1080   1.264       .  A
O255        V261   1.899       .  S
O255       C1081   1.265       .  A
O256        V261   1.898       .  S
O256       C1082   1.264       .  A
O257        V262   1.898       .  S
O257        C266   1.265       .  A
O258        V262   1.898       .  S
O258        C265   1.264       .  A
O259        V262   1.899       .  S
O259        C264   1.265       .  A
O260        V262   1.899       .  S
O260        C263   1.265       .  A
V261       V1078   2.085       .  T
V262       V1077   2.085   1_545  T
C263       O1069   1.264   1_545  A
C263        C441   1.481       .  S
C264       O1070   1.263   1_545  A
C264        C428   1.480       .  S
C265       O1071   1.265   1_545  A
C265        C391   1.478       .  S
C266       O1072   1.264   1_545  A
C266        C631   1.481       .  S
O267        V275   1.898       .  S
O267        C277   1.265       .  A
O268        V275   1.899       .  S
O268        C278   1.265       .  A
O269        V275   1.896       .  S
O269        C279   1.264       .  A
O270        V275   1.894       .  S
O270        C280   1.263       .  A
O271        V276   1.900       .  S
O271        C280   1.266       .  A
O272        V276   1.899       .  S
O272        C279   1.265       .  A
O273        V276   1.899       .  S
O273        C278   1.264       .  A
O274        V276   1.899       .  S
O274        C277   1.264       .  A
V275        V276   2.085       .  T
C277        C621   1.482       .  S
C278        C378   1.477       .  S
C279        C401   1.481       .  S
C280        C411   1.481       .  S
O281       V1921   1.895       .  S
O281        C291   1.264       .  A
O282       V1105   1.899   1_545  S
O282        C292   1.265       .  A
O283        V289   1.897       .  S
O283       C1109   1.265   1_455  A
O284        V289   1.898       .  S
O284       C1110   1.264       .  A
O285        V290   1.899       .  S
O285       C1926   1.264       .  A
O286        V290   1.900       .  S
O286       C1925   1.265       .  A
O287       V1922   1.898   1_455  S
O287        C292   1.265       .  A
O288       V1106   1.903       .  S
O288        C291   1.266       .  A
V289       O1913   1.895   1_455  S
V289       O1098   1.899       .  S
V289       V2738   2.085   1_455  T
V290       O1919   1.898       .  S
V290       O1104   1.903   1_545  S
V290       V2737   2.085   1_545  T
C291        C358   1.483       .  S
C292        C368   1.483       .  S
C293       O1099   1.265   1_645  A
C293       O1918   1.265       .  A
C293        C528   1.481       .  S
C294       O1100   1.264   1_545  A
C294       O1917   1.264   1_455  A
C294        C448   1.474       .  S
O295        V303   1.897       .  S
O295        C305   1.265       .  A
O296       V1935   1.894   1_455  S
O296        C306   1.263       .  A
O297        V303   1.897       .  S
O297       C1939   1.264       .  A
O298        V303   1.898       .  S
O298       C1940   1.265       .  A
O299        V304   1.898       .  S
O299        C308   1.264       .  A
O300        V304   1.899       .  S
O300        C307   1.264       .  A
O301        V304   1.904       .  S
O301        C306   1.267       .  A
O302       V1936   1.900       .  S
O302        C305   1.265       .  A
V303       O1928   1.894       .  S
V303       V1936   2.085       .  T
V304       O1934   1.900   1_455  S
V304       V1935   2.085   1_455  T
C305        C338   1.483       .  S
C306        C348   1.482       .  S
C307       O1929   1.264   1_455  A
C307        C421   1.470       .  S
C308       O1930   1.265   1_455  A
C308        C501   1.482       .  S
O309       V1133   1.904       .  S
O309        C319   1.267       .  A
O310        V317   1.901       .  S
O310        C320   1.265       .  A
O311        V317   1.895       .  S
O311       C1137   1.263   1_545  A
O312        V317   1.895       .  S
O312       C1138   1.264   1_545  A
O313        V318   1.902       .  S
O313        C322   1.265       .  A
O314        V318   1.902       .  S
O314        C321   1.265       .  A
O315       V1134   1.896   1_545  S
O315        C320   1.264       .  A
O316        V318   1.894       .  S
O316        C319   1.263       .  A
V317       O1125   1.904   1_545  S
V317       V1134   2.085   1_545  T
V318       O1131   1.896       .  S
V318       V1133   2.085       .  T
C319        C351   1.483       .  S
C320        C341   1.482       .  S
C321       O1127   1.263       .  A
C321        C388   1.473       .  S
C322       O1128   1.264       .  A
C322        C471   1.482       .  S
O323        V331   1.900       .  S
O323        C333   1.265       .  A
O324        V331   1.900       .  S
O324        C334   1.264       .  A
O325        V331   1.897       .  S
O325        C335   1.265       .  A
O326        V331   1.896       .  S
O326        C336   1.264       .  A
O327        V332   1.902       .  S
O327        C336   1.266       .  A
O328        V332   1.900       .  S
O328        C335   1.265       .  A
O329        V332   1.898       .  S
O329        C334   1.264       .  A
O330        V332   1.898       .  S
O330        C333   1.264       .  A
V331        V332   2.085       .  T
C333        C461   1.483       .  S
C334        C381   1.476       .  S
C335        C371   1.483       .  S
C336        C361   1.483       .  S
C337        C338   1.406       .  A
C337        C342   1.398       .  A
C337        H344   1.083       .  S
C338        C339   1.408       .  A
C339        C340   1.398       .  A
C339        F346   1.357       .  S
C340        C341   1.406       .  A
C340        H345   1.083       .  S
C341        C342   1.408       .  A
C342        F343   1.357       .  S
C347        C348   1.404       .  A
C347        C352   1.398       .  A
C347        H354   1.083       .  S
C348        C349   1.410       .  A
C349        C350   1.398       .  A
C349        F356   1.357       .  S
C350        C351   1.404       .  A
C350        H355   1.083       .  S
C351        C352   1.410       .  A
C352        F353   1.357       .  S
C357        C358   1.406       .  A
C357        C362   1.397       .  A
C357        H364   1.083       .  S
C358        C359   1.408       .  A
C359        C360   1.399       .  A
C359        F366   1.357       .  S
C360        C361   1.407       .  A
C360        H365   1.084       .  S
C361        C362   1.407       .  A
C362        F363   1.357       .  S
C367        C368   1.406       .  A
C367        C372   1.399       .  A
C367        H374   1.083       .  S
C368        C369   1.408       .  A
C369        C370   1.397       .  A
C369        F376   1.357       .  S
C370        C371   1.405       .  A
C370        H375   1.083       .  S
C371        C372   1.409       .  A
C372        F373   1.357       .  S
C377        C378   1.405       .  A
C377        C382   1.398       .  A
C377        H384   1.083       .  S
C378        C379   1.407       .  A
C379        C380   1.398       .  A
C379        F386   1.358       .  S
C380        C381   1.404       .  A
C380        H385   1.083       .  S
C381        C382   1.406       .  A
C382        F383   1.357       .  S
C387        C392   1.397       .  A
C387       C1204   1.403   1_545  A
C387        H394   1.083       .  S
C388        C389   1.405       .  A
C388       C1203   1.403       .  A
C389        C390   1.398       .  A
C389        F396   1.357       .  S
C390       C1207   1.406       .  A
C390        H395   1.083       .  S
C391        C392   1.408       .  A
C391       C1206   1.406   1_545  A
C392        F393   1.358       .  S
C397        C398   1.405       .  A
C397        C402   1.397       .  A
C397        H404   1.083       .  S
C398        C399   1.409       .  A
C399        C400   1.397       .  A
C399        F406   1.357       .  S
C400        C401   1.405       .  A
C400        H405   1.083       .  S
C401        C402   1.409       .  A
C402        F403   1.357       .  S
C407        C408   1.404       .  A
C407        C412   1.397       .  A
C407        H414   1.083       .  S
C408        C409   1.409       .  A
C409        C410   1.397       .  A
C409        F416   1.357       .  S
C410        C411   1.404       .  A
C410        H415   1.083       .  S
C411        C412   1.409       .  A
C412        F413   1.357       .  S
C417        C422   1.397       .  A
C417       C2050   1.406       .  A
C417        H424   1.083       .  S
C418        C419   1.410   1_455  A
C418       C2049   1.406       .  A
C419        C420   1.399       .  A
C419        F426   1.357       .  S
C420        C421   1.402   1_655  A
C420        H425   1.083       .  S
C421       C2054   1.403       .  A
C422       C2053   1.403       .  A
C422        F423   1.358       .  S
C427        C428   1.405       .  A
C427        C432   1.397       .  A
C427        H434   1.083       .  S
C428       C1245   1.409   1_545  A
C429        C430   1.397       .  A
C429       C1244   1.409       .  A
C429        F436   1.357       .  S
C430       C1247   1.405       .  A
C430        H435   1.083       .  S
C431        C432   1.409       .  A
C431       C1246   1.404   1_545  A
C432        F433   1.357       .  S
C437        C442   1.397       .  A
C437       C1254   1.405       .  A
C437        H444   1.083       .  S
C438        C439   1.409       .  A
C438       C1253   1.405   1_545  A
C439        C440   1.397       .  A
C439        F446   1.357       .  S
C440        C441   1.405       .  A
C440        H445   1.083       .  S
C441       C1258   1.409   1_545  A
C442       C1257   1.409       .  A
C442        F443   1.357       .  S
C447        C452   1.398       .  A
C447       C1264   1.403   1_655  A
C447        H454   1.083       .  S
C448       C1263   1.403   1_445  A
C448       C2081   1.406       .  A
C449        C450   1.398       .  A
C449       C2080   1.406       .  A
C449        F456   1.358       .  S
C450       C2083   1.405       .  A
C450        H455   1.083       .  S
C451       C2082   1.405   1_655  A
C451       C1268   1.408   1_545  A
C452       C1267   1.408       .  A
C452        F453   1.357       .  S
C457        C458   1.405       .  A
C457        C462   1.398       .  A
C457        H464   1.083       .  S
C458        C459   1.409       .  A
C459        C460   1.398       .  A
C459        F466   1.357       .  S
C460        C461   1.405       .  A
C460        H465   1.083       .  S
C461        C462   1.409       .  A
C462        F463   1.357       .  S
C467        C468   1.406       .  A
C467        C472   1.397       .  A
C467        H474   1.085       .  S
C468       C1285   1.408   1_565  A
C469        C470   1.398       .  A
C469       C1284   1.408       .  A
C469        F476   1.357       .  S
C470        C471   1.406       .  A
C470        H475   1.083       .  S
C471       C1288   1.408       .  A
C472       C1287   1.408       .  A
C472        F473   1.357       .  S
C477        C478   1.405       .  A
C477        C482   1.397       .  A
C477        H484   1.083       .  S
C478        C479   1.408       .  A
C479        C480   1.398       .  A
C479        F486   1.357       .  S
C480        C481   1.406       .  A
C480        H485   1.083       .  S
C481        C482   1.408       .  A
C482        F483   1.357       .  S
C487        C488   1.405       .  A
C487        C492   1.398       .  A
C487        H494   1.084       .  S
C488        C489   1.409       .  A
C489        C490   1.398       .  A
C489        F496   1.357       .  S
C490        C491   1.405       .  A
C490        H495   1.083       .  S
C491        C492   1.409       .  A
C492        F493   1.357       .  S
C497        C498   1.405       .  A
C497        C502   1.398       .  A
C497        H504   1.083       .  S
C498       C2131   1.408   1_455  A
C499        C500   1.397       .  A
C499       C2130   1.408       .  A
C499        F506   1.357       .  S
C500       C2133   1.405       .  A
C500        H505   1.083       .  S
C501        C502   1.409       .  A
C501       C2132   1.405   1_455  A
C502        F503   1.357       .  S
C507        C508   1.406       .  A
C507        C512   1.398       .  A
C507        H514   1.083       .  S
C508        C509   1.409       .  A
C509        C510   1.396       .  A
C509        F516   1.357       .  S
C510        C511   1.405       .  A
C510        H515   1.083       .  S
C511        C512   1.409       .  A
C512        F513   1.357       .  S
C517        C518   1.406       .  A
C517        C522   1.399       .  A
C517        H524   1.083       .  S
C518        C519   1.409       .  A
C519        C520   1.397       .  A
C519        F526   1.357       .  S
C520        C521   1.405       .  A
C520        H525   1.083       .  S
C521        C522   1.410       .  A
C522        F523   1.357       .  S
C527        C532   1.397       .  A
C527       C2976   1.405       .  A
C527        H534   1.083       .  S
C528        C529   1.408       .  A
C528       C2975   1.405   1_645  A
C529        C530   1.398       .  A
C529        F536   1.357       .  S
C530        C531   1.406   1_655  A
C530        H535   1.083       .  S
C531       C2980   1.408   1_545  A
C532       C2979   1.408       .  A
C532        F533   1.357       .  S
C537        C538   1.403       .  A
C537        C542   1.398   1_554  A
C537        H544   1.083       .  S
C538        C539   1.406       .  A
C539        C540   1.397   1_554  A
C539        F546   1.358       .  S
C540        C541   1.405       .  A
C540        H545   1.083       .  S
C541        C542   1.409       .  A
C542        F543   1.357       .  S
C547        C548   1.405       .  A
C547        C552   1.398       .  A
C547        H554   1.083       .  S
C548        C549   1.409       .  A
C549        C550   1.399       .  A
C549        F556   1.357       .  S
C550        C551   1.405       .  A
C550        H555   1.083       .  S
C551        C552   1.409       .  A
C552        F553   1.358       .  S
C557        C558   1.405       .  A
C557        C562   1.398       .  A
C557        H564   1.083       .  S
C558        C559   1.410       .  A
C559        C560   1.398       .  A
C559        F566   1.357       .  S
C560        C561   1.405       .  A
C560        H565   1.083       .  S
C561        C562   1.410       .  A
C562        F563   1.357       .  S
C567        C572   1.398   1_554  A
C567       C1384   1.404       .  A
C567        H574   1.083       .  S
C568        C569   1.408       .  A
C568       C1383   1.404       .  A
C569        C570   1.398   1_554  A
C569        F576   1.358   1_545  S
C570        C571   1.403       .  A
C570        H575   1.083   1_545  S
C571       C1388   1.407       .  A
C572       C1387   1.407       .  A
C572        F573   1.358       .  S
C577        C582   1.396   1_554  A
C577       C2210   1.406       .  A
C577        H584   1.083       .  S
C578       C1771   1.479       .  S
C578        C579   1.409       .  A
C578       C2209   1.406   1_655  A
C579        C580   1.399   1_554  A
C579        F586   1.357       .  S
C580        C581   1.403       .  A
C580        H585   1.083       .  S
C581       C2214   1.404   1_655  A
C582       C2213   1.404       .  A
C582        F583   1.358       .  S
C587        C592   1.398       .  A
C587       C2220   1.405   1_455  A
C587        H594   1.083       .  S
C588       C1756   1.483       .  S
C588        C589   1.409       .  A
C588       C2219   1.405       .  A
C589        C590   1.398       .  A
C589        F596   1.357       .  S
C590        C591   1.405       .  A
C590        H595   1.083       .  S
C591       C2224   1.409       .  A
C592       C2223   1.409   1_455  A
C592        F593   1.357       .  S
C597        C602   1.398       .  A
C597       C2230   1.405   1_455  A
C597        H604   1.083       .  S
C598       C1755   1.483       .  S
C598        C599   1.410       .  A
C598       C2229   1.405       .  A
C599        C600   1.398       .  A
C599        F606   1.357       .  S
C600        C601   1.405       .  A
C600        H605   1.083       .  S
C601       C2234   1.409       .  A
C602       C2233   1.409   1_455  A
C602        F603   1.357       .  S
C607        C612   1.398   1_556  A
C607       C3056   1.406       .  A
C607        H614   1.083       .  S
C608        C609   1.407   1_655  A
C608       C3055   1.406   1_565  A
C609        C610   1.397   1_556  A
C609        F616   1.357       .  S
C610        C611   1.404   1_455  A
C610        H615   1.083       .  S
C611       C3060   1.405   1_565  A
C612       C3059   1.405       .  A
C612        F613   1.358       .  S
C617        C618   1.406       .  A
C617        C622   1.398       .  A
C617        H624   1.083       .  S
C618        C619   1.409       .  A
C619        C620   1.397       .  A
C619        F626   1.357       .  S
C620        C621   1.405       .  A
C620        H625   1.083       .  S
C621        C622   1.409       .  A
C622        F623   1.357       .  S
C627        C632   1.397       .  A
C627       C1444   1.405       .  A
C627        H634   1.083       .  S
C628        C629   1.408       .  A
C628       C1443   1.405   1_545  A
C629        C630   1.398       .  A
C629        F636   1.357       .  S
C630        C631   1.405       .  A
C630        H635   1.083       .  S
C631       C1448   1.408   1_545  A
C632       C1447   1.408       .  A
C632        F633   1.357       .  S
C637        C638   1.405   1_455  A
C637        C642   1.398       .  A
C637        H644   1.083       .  S
C638       C2271   1.408       .  A
C639        C640   1.397       .  A
C639       C2270   1.408       .  A
C639        F646   1.357       .  S
C640       C2273   1.404       .  A
C640        H645   1.083       .  S
C641        C642   1.409   1_655  A
C641       C2272   1.404       .  A
C642        F643   1.358       .  S
C647        C648   1.405       .  A
C647        C652   1.398       .  A
C647        H654   1.083       .  S
C648        C649   1.409       .  A
C649        C650   1.397       .  A
C649        F656   1.357       .  S
C650        C651   1.404       .  A
C650        H655   1.083       .  S
C651        C652   1.409       .  A
C652        F653   1.358       .  S
C657        C658   1.406       .  A
C657        C662   1.397       .  A
C657        H664   1.083       .  S
C658        C659   1.408       .  A
C659        C660   1.397       .  A
C659        F666   1.357       .  S
C660        C661   1.405       .  A
C660        H665   1.083       .  S
C661        C662   1.408       .  A
C662        F663   1.358       .  S
C667        C672   1.397       .  A
C667       C2300   1.405       .  A
C667        H674   1.083       .  S
C668       C2299   1.405       .  A
C668       C1485   1.409   1_445  A
C669        C670   1.397       .  A
C669       C1484   1.409   1_655  A
C669        F676   1.357       .  S
C670       C1487   1.405   1_655  A
C670        H675   1.083       .  S
C671       C1486   1.405   1_545  A
C671       C2304   1.409   1_655  A
C672       C2303   1.409       .  A
C672        F673   1.357       .  S
C677        C682   1.397       .  A
C677       C1494   1.405       .  A
C677        H684   1.083       .  S
C678        C679   1.408       .  A
C678       C1493   1.405   1_545  A
C679        C680   1.397       .  A
C679        F686   1.357       .  S
C680        C681   1.405       .  A
C680        H685   1.083       .  S
C681       C1498   1.409   1_545  A
C682       C1497   1.408       .  A
C682        F683   1.357       .  S
C687        C692   1.396       .  A
C687       C1504   1.406       .  A
C687        H694   1.083       .  S
C688        C689   1.408       .  A
C688       C1503   1.406   1_545  A
C689        C690   1.397       .  A
C689        F696   1.357       .  S
C690        C691   1.406       .  A
C690        H695   1.083       .  S
C691       C1508   1.408   1_545  A
C692       C1507   1.408       .  A
C692        F693   1.357       .  S
C697        C698   1.405       .  A
C697        C702   1.398       .  A
C697        H704   1.083       .  S
C698        C699   1.408       .  A
C699        C700   1.397       .  A
C699        F706   1.357       .  S
C700        C701   1.404       .  A
C700        H705   1.083       .  S
C701        C702   1.409       .  A
C702        F703   1.358       .  S
C707        C708   1.405       .  A
C707        C712   1.398       .  A
C707        H714   1.083       .  S
C708        C709   1.407       .  A
C709        C710   1.396       .  A
C709        F716   1.357       .  S
C710        C711   1.403       .  A
C710        H715   1.083       .  S
C711        C712   1.406       .  A
C712        F713   1.358       .  S
C717        C718   1.404       .  A
C717        C722   1.398       .  A
C717        H724   1.083       .  S
C718        C719   1.410       .  A
C719        C720   1.398       .  A
C719        F726   1.357       .  S
C720        C721   1.404       .  A
C720        H725   1.083       .  S
C721        C722   1.410       .  A
C722        F723   1.357       .  S
C727        C728   1.406       .  A
C727        C732   1.398       .  A
C727        H734   1.083       .  S
C728        C729   1.408       .  A
C729        C730   1.398       .  A
C729        F736   1.357       .  S
C730        C731   1.406       .  A
C730        H735   1.083       .  S
C731        C732   1.408       .  A
C732        F733   1.358       .  S
C737        C738   1.405       .  A
C737        C742   1.397       .  A
C737        H744   1.083       .  S
C738       C1555   1.409       .  A
C739        C740   1.398       .  A
C739       C1554   1.409       .  A
C739        F746   1.358       .  S
C740       C1557   1.405       .  A
C740        H745   1.083       .  S
C741        C968   1.480       .  S
C741        C742   1.408       .  A
C741       C1556   1.405       .  A
C742        F743   1.357       .  S
C747        C748   1.403       .  A
C747        C752   1.398       .  A
C747        H754   1.083       .  S
C748       C1565   1.407       .  A
C749        C750   1.397       .  A
C749       C1564   1.408       .  A
C749        F756   1.358       .  S
C750        C751   1.404       .  A
C750        H755   1.083       .  S
C751       C1568   1.407   1_545  A
C752       C1567   1.408       .  A
C752        F753   1.357       .  S
C757        C758   1.405   1_455  A
C757        C762   1.398       .  A
C757        H764   1.083       .  S
C758       C2391   1.409       .  A
C759        C760   1.397       .  A
C759       C2390   1.409       .  A
C759        F766   1.357       .  S
C760       C2393   1.405       .  A
C760        H765   1.083       .  S
C761        C762   1.409   1_655  A
C761       C2392   1.405       .  A
C762        F763   1.357       .  S
C767        C772   1.397       .  A
C767       C2400   1.404       .  A
C767        H774   1.083       .  S
C768        C769   1.406       .  A
C768       C2399   1.404   1_455  A
C769        C770   1.399       .  A
C769        F776   1.358       .  S
C770        C771   1.405       .  A
C770        H775   1.083       .  S
C771       C2404   1.407   1_455  A
C772       C2403   1.407       .  A
C772        F773   1.358       .  S
C777        C778   1.405       .  A
C777        C782   1.397       .  A
C777        H784   1.084       .  S
C778       C2411   1.409       .  A
C779        C780   1.399       .  A
C779       C2410   1.409       .  A
C779        F786   1.357       .  S
C780        C781   1.406       .  A
C780        H785   1.084       .  S
C781       C2414   1.409   1_455  A
C782       C2413   1.409       .  A
C782        F783   1.357       .  S
C787        C792   1.399       .  A
C787       C2420   1.406       .  A
C787        H794   1.084       .  S
C788        C789   1.408       .  A
C788       C2419   1.406   1_455  A
C789        C790   1.397       .  A
C789        F796   1.357       .  S
C790       C2423   1.406   1_455  A
C790        H795   1.084       .  S
C791        C792   1.408       .  A
C791       C2422   1.406       .  A
C792        F793   1.357       .  S
C797        C798   1.405   1_455  A
C797        C802   1.398       .  A
C797        H804   1.083       .  S
C798       C3247   1.409   1_545  A
C799        C800   1.397       .  A
C799       C3246   1.409       .  A
C799        F806   1.357       .  S
C800       C3249   1.405       .  A
C800        H805   1.083       .  S
C801        C802   1.409   1_655  A
C801       C3248   1.405   1_545  A
C802        F803   1.357       .  S
C807        C812   1.397       .  A
C807       C3256   1.404       .  A
C807        H814   1.083       .  S
C808        C809   1.407       .  A
C808       C3255   1.403   1_445  A
C809        C810   1.398       .  A
C809        F816   1.358       .  S
C810        C811   1.404       .  A
C810        H815   1.083       .  S
C811       C3260   1.408   1_445  A
C812       C3259   1.407       .  A
C812        F813   1.358       .  S
O817       C2459   1.265       .  A
O818        V825   1.896       .  S
O818       C2460   1.264   1_455  A
O819        V825   1.900       .  S
O819        C829   1.265       .  A
O820        V825   1.900       .  S
O820        C830   1.265   1_455  A
O821        V826   1.896       .  S
O821       C1646   1.264   1_565  A
O822        V826   1.896       .  S
O822       C1645   1.263   1_565  A
O823        C828   1.265       .  A
O824        V826   1.899       .  S
O824        C827   1.265       .  A
V825       V1642   2.085   1_455  T
V826       V1641   2.085   1_565  T
C827       O2449   1.265       .  A
C827       C1594   1.483       .  S
C828       O2450   1.264       .  A
C828       C1607   1.483       .  S
C829       O1638   1.263   1_455  A
C829       C1627   1.476       .  S
C830       O1637   1.264       .  A
C830       C1614   1.481       .  S
O831        V839   1.901       .  S
O831        C841   1.265       .  A
O832        V839   1.900       .  S
O832        C842   1.265       .  A
O833        V839   1.899       .  S
O833        C843   1.264       .  A
O834        V839   1.899       .  S
O834        C844   1.265       .  A
O835        V840   1.898       .  S
O835       C2476   1.264       .  A
O836        V840   1.897       .  S
O836       C2475   1.264       .  A
O837        V840   1.899       .  S
O837       C2474   1.265       .  A
O838        V840   1.898       .  S
O838       C2473   1.264       .  A
V839       V2472   2.085   1_455  T
V840       V2471   2.085       .  T
C841       O2470   1.264   1_455  A
C841       C1604   1.482       .  S
C842       O2469   1.265   1_455  A
C842       C1597   1.483       .  S
C843       O2468   1.264   1_455  A
C843       C1584   1.474       .  S
C844       O2467   1.264   1_455  A
C844       C1574   1.482       .  S
O845        C855   1.267       .  A
O846        V853   1.902       .  S
O846        C856   1.266       .  A
O847        V853   1.897       .  S
O848        V853   1.896       .  S
O849        V854   1.901       .  S
O849        C858   1.266   1_565  A
O850        V854   1.900       .  S
O850        C857   1.265   1_565  A
O851        C856   1.264       .  A
O852        V854   1.895       .  S
O852        C855   1.263       .  A
C855       C1534   1.484       .  S
C856       C1544   1.482       .  S
C857       C1564   1.476       .  S
C858       C1554   1.481       .  S
O859        V867   1.897       .  S
O859        C869   1.264       .  A
O860        V867   1.895       .  S
O860        C870   1.263       .  A
O861        V867   1.896       .  S
O861        C871   1.264       .  A
O862        V867   1.896       .  S
O862        C872   1.264       .  A
O863        V868   1.899       .  S
O863        C872   1.265       .  A
O864        V868   1.899       .  S
O864        C871   1.264       .  A
O865        V868   1.904       .  S
O865        C870   1.267       .  A
O866        V868   1.901       .  S
O866        C869   1.265       .  A
V867        V868   2.086       .  T
C869       C1547   1.481       .  S
C870       C1537   1.484       .  S
C871       C1524   1.476       .  S
C872       C1514   1.478       .  S
O873        V881   1.898       .  S
O873       C1699   1.265   1_565  A
O874        V881   1.898       .  S
O874       C1700   1.264   1_565  A
O875       V2513   1.899   1_455  S
O876        V881   1.898       .  S
O877       V2514   1.898       .  S
O877        C886   1.265       .  A
O878        V882   1.895       .  S
O878        C885   1.264       .  A
O879        V882   1.899       .  S
O879        C884   1.264       .  A
O880        V882   1.898       .  S
O880        C883   1.264   1_455  A
V881       O2507   1.899       .  S
V881       V1698   2.086   1_565  T
V882       O2509   1.898   1_455  S
V882       V1697   2.086   1_455  T
C883       O1689   1.265       .  A
C883       C1487   1.481   1_655  S
C884       O1690   1.264   1_455  A
C884       C1624   1.475       .  S
C885       C1507   1.480       .  S
C886       C1494   1.481       .  S
O887        V895   1.899       .  S
O887        C897   1.265   1_455  A
O888        V895   1.899       .  S
O888        C898   1.265       .  A
O889       V2527   1.902       .  S
O889        C899   1.266       .  A
O890        V895   1.900       .  S
O890        C900   1.265       .  A
O891       V2528   1.896   1_455  S
O891        C900   1.264       .  A
O892        V896   1.895       .  S
O892        C899   1.264       .  A
O893        V896   1.898       .  S
O893       C2530   1.264       .  A
O894        V896   1.898       .  S
O894       C2529   1.265       .  A
V895       O2521   1.902   1_455  S
V895       V2528   2.084   1_455  T
V896       O2523   1.896       .  S
V896       V2527   2.084       .  T
C897       O2526   1.265       .  A
C897       C1454   1.480       .  S
C898       O2525   1.264   1_455  A
C898       C1587   1.478       .  S
C899       C1464   1.482       .  S
C900       C1474   1.480       .  S
O901        V909   1.899       .  S
O902        V909   1.895       .  S
O903        V909   1.897       .  S
O904        V909   1.898       .  S
O905        V910   1.899       .  S
O905        C914   1.264       .  A
O906        V910   1.899       .  S
O906        C913   1.265       .  A
O907        V910   1.899       .  S
O907        C912   1.265       .  A
O908        V910   1.897       .  S
O908        C911   1.265       .  A
C911       C1497   1.481       .  S
C912       C1504   1.480       .  S
C913       C1567   1.476       .  S
C914       C1444   1.481       .  S
O915        V923   1.901       .  S
O915        C925   1.266       .  A
O916        V923   1.898       .  S
O916        C926   1.264       .  A
O917        V923   1.899       .  S
O917        C927   1.264       .  A
O918        V923   1.900       .  S
O918        C928   1.265       .  A
O919        V924   1.896       .  S
O919        C928   1.264       .  A
O920        V924   1.896       .  S
O920        C927   1.264       .  A
O921        V924   1.898       .  S
O921        C926   1.265       .  A
O922        V924   1.896       .  S
O922        C925   1.264       .  A
V923        V924   2.086       .  T
C925       C1467   1.482       .  S
C926       C1477   1.479       .  S
C927       C1527   1.472       .  S
C928       C1434   1.482       .  S
O929        V937   1.901       .  S
O929        C939   1.266   1_455  A
O930        C940   1.265   1_455  A
O931        V937   1.895       .  S
O931        C941   1.263   1_455  A
O932        V937   1.896       .  S
O932        C942   1.264   1_455  A
O933        V938   1.899       .  S
O933       C1758   1.265   1_565  A
O934        V938   1.900       .  S
O934       C1757   1.265       .  A
O935        V938   1.898       .  S
O935       C2572   1.264       .  A
O936       C2571   1.264       .  A
V937       V1754   2.085   1_455  T
V938       V1753   2.085   1_565  T
C939       O2568   1.264       .  A
C939       C3046   1.483       .  S
C940       O2567   1.264       .  A
C940       C3036   1.483       .  S
C941       O1750   1.265       .  A
C941       C1427   1.473       .  S
C942       O1749   1.265       .  A
C942       C1617   1.481       .  S
O943        V951   1.899       .  S
O943       C2585   1.264   1_455  A
O944        V951   1.897       .  S
O944       C2586   1.264   1_455  A
O945        V951   1.899       .  S
O945       C2587   1.265   1_455  A
O946        V951   1.899       .  S
O946        C956   1.265       .  A
O947        V952   1.898       .  S
O947       C2588   1.265       .  A
O948        V952   1.899       .  S
O948        C955   1.264       .  A
O949        V952   1.900       .  S
O949        C954   1.265       .  A
O950        V952   1.899       .  S
O950        C953   1.265       .  A
V951       V2584   2.085   1_455  T
V952       V2583   2.085       .  T
C953       O2575   1.264       .  A
C953       C1407   1.483       .  S
C954       O2576   1.264       .  A
C954       C1417   1.483       .  S
C955       O2577   1.265       .  A
C955       C3026   1.482       .  S
C956       O2579   1.265   1_455  A
C956       C1577   1.482       .  S
O957        V965   1.896       .  S
O958        V965   1.897       .  S
O959        C969   1.264       .  A
O960        V965   1.899       .  S
O960        C970   1.265       .  A
O961        C970   1.265       .  A
O962        V966   1.902       .  S
O962        C969   1.266       .  A
O963        V966   1.900       .  S
O963        C968   1.265       .  A
O964        V966   1.901       .  S
O964        C967   1.265       .  A
C967       C1384   1.477       .  S
C969       C1374   1.483       .  S
C970       C1364   1.483       .  S
O971        V979   1.898       .  S
O971        C981   1.264       .  A
O972        V979   1.896       .  S
O972        C982   1.263       .  A
O973        V979   1.901       .  S
O973        C983   1.265       .  A
O974        V979   1.899       .  S
O974        C984   1.265       .  A
O975        V980   1.896       .  S
O975        C984   1.264       .  A
O976        V980   1.895       .  S
O976        C983   1.263       .  A
O977        V980   1.902       .  S
O977        C982   1.266       .  A
O978        V980   1.902       .  S
O978        C981   1.266       .  A
V979        V980   2.085       .  T
C981       C1367   1.482       .  S
C982       C1377   1.483       .  S
C983       C1354   1.474       .  S
C984       C1517   1.479       .  S
O985       V2625   1.901   1_455  S
O985        C995   1.266       .  A
O986        C996   1.265       .  A
O987        V993   1.897       .  S
O987       C2629   1.264       .  A
O988        V993   1.898       .  S
O988       C2630   1.265       .  A
O989        V994   1.899       .  S
O990        V994   1.899       .  S
O991       V2626   1.897       .  S
O991        C996   1.264       .  A
O992        C995   1.264       .  A
V993       O2617   1.901       .  S
V993       V1810   2.085       .  T
V994       O2623   1.897   1_455  S
V994       V1809   2.085   1_465  T
C995       C1337   1.483       .  S
C996       C1324   1.482       .  S
C997       O2619   1.264   1_455  A
C997       C1424   1.477   1_455  S
C998       O2620   1.265   1_455  A
C998       C1347   1.482       .  S
O999       V1007   1.897       .  S
O999       C1009   1.264       .  A
O1000      V2639   1.900       .  S
O1000      C1010   1.265       .  A
O1001      V1007   1.899       .  S
O1001      C1011   1.265       .  A
O1002      V1007   1.898       .  S
O1002      C1012   1.263   1_455  A
O1003      V1008   1.900       .  S
O1003      C2644   1.264       .  A
O1004      V1008   1.899       .  S
O1004      C2643   1.265       .  A
O1005      V1008   1.897       .  S
O1005      C1010   1.264       .  A
O1006      V2640   1.901   1_455  S
O1006      C1009   1.266       .  A
V1007      O2632   1.900   1_455  S
V1007      V2640   2.085   1_455  T
V1008      O2638   1.901       .  S
V1008      V2639   2.085       .  T
C1009      C1304   1.483       .  S
C1010      C1297   1.482       .  S
C1011      O2636   1.265   1_455  A
C1011      C1314   1.482       .  S
C1012      O2635   1.264       .  A
C1012      C1397   1.469       .  S
O1013      C1023   1.265       .  A
O1014      V1021   1.902       .  S
O1014      C1024   1.266       .  A
O1015      V1021   1.897       .  S
O1016      V1021   1.896       .  S
O1017      V1022   1.901       .  S
O1017      C1026   1.265       .  A
O1018      V1022   1.900       .  S
O1018      C1025   1.265       .  A
O1019      C1024   1.264       .  A
O1020      V1022   1.900       .  S
O1020      C1023   1.265       .  A
C1023      C1294   1.482       .  S
C1024      C1307   1.483       .  S
C1025      C1284   1.481       .  S
C1026      C1387   1.475       .  S
O1027      V1035   1.899       .  S
O1027      C1037   1.264       .  A
O1028      V1035   1.897       .  S
O1028      C1038   1.264       .  A
O1029      V1035   1.899       .  S
O1029      C1039   1.265       .  A
O1030      V1035   1.900       .  S
O1030      C1040   1.265       .  A
O1031      V1036   1.898       .  S
O1031      C1040   1.265       .  A
O1032      V1036   1.898       .  S
O1032      C1039   1.264       .  A
O1033      V1036   1.902       .  S
O1033      C1038   1.266       .  A
O1034      V1036   1.898       .  S
O1034      C1037   1.265       .  A
V1035      V1036   2.085       .  T
C1037      C1327   1.482       .  S
C1038      C1334   1.483       .  S
C1039      C1357   1.478       .  S
C1040      C1274   1.483       .  S
O1041      V1049   1.899       .  S
O1041      C1051   1.265       .  A
O1042      V1049   1.899       .  S
O1042      C1052   1.265       .  A
O1043      V1049   1.896       .  S
O1043      C1053   1.264       .  A
O1044      V2681   1.895       .  S
O1044      C1054   1.263       .  A
O1045      V1050   1.899       .  S
O1046      V2682   1.899   1_455  S
O1047      V1050   1.898       .  S
O1047      C1868   1.264   1_565  A
O1048      V1050   1.897       .  S
O1048      C1867   1.264   1_565  A
V1049      O2676   1.895   1_455  S
V1049      V1866   2.085   1_455  T
V1050      O2678   1.899       .  S
V1050      V1865   2.085   1_565  T
C1051      O1864   1.264   1_455  A
C1051      C1484   1.482       .  S
C1052      O1863   1.264   1_455  A
C1052      C1267   1.478   1_455  S
C1053      C1254   1.481       .  S
C1054      C1247   1.481       .  S
O1055      V1063   1.897       .  S
O1055      C1065   1.264       .  A
O1056      V2695   1.894   1_455  S
O1056      C1066   1.263       .  A
O1057      V1063   1.899       .  S
O1057      C2699   1.265       .  A
O1058      V1063   1.899       .  S
O1058      C2700   1.265       .  A
O1059      V1064   1.898       .  S
O1059      C1068   1.264   1_455  A
O1060      V1064   1.897       .  S
O1060      C1067   1.265       .  A
O1061      V1064   1.900       .  S
O1061      C1066   1.265       .  A
O1062      V2696   1.898       .  S
O1062      C1065   1.265       .  A
V1063      O2688   1.894       .  S
V1063      V2696   2.085       .  T
V1064      O2694   1.898   1_455  S
V1064      V2695   2.085   1_455  T
C1065      C1214   1.481       .  S
C1066      C1224   1.481       .  S
C1067      O2689   1.265   1_455  A
C1067      C1234   1.481       .  S
C1068      O2690   1.265       .  A
C1068      C1457   1.480       .  S
O1069      V1077   1.896       .  S
O1070      V1077   1.895       .  S
O1071      V1077   1.898       .  S
O1072      V1077   1.898       .  S
O1073      V1078   1.898       .  S
O1073      C1082   1.265       .  A
O1074      V1078   1.898       .  S
O1074      C1081   1.264       .  A
O1075      V1078   1.899       .  S
O1075      C1080   1.265       .  A
O1076      V1078   1.898       .  S
O1076      C1079   1.265       .  A
C1079      C1257   1.481       .  S
C1080      C1244   1.481       .  S
C1081      C1207   1.478       .  S
C1082      C1447   1.481       .  S
O1083      V1091   1.898       .  S
O1083      C1093   1.265       .  A
O1084      V1091   1.899       .  S
O1084      C1094   1.265       .  A
O1085      V1091   1.896       .  S
O1085      C1095   1.264       .  A
O1086      V1091   1.894       .  S
O1086      C1096   1.263       .  A
O1087      V1092   1.900       .  S
O1087      C1096   1.266       .  A
O1088      V1092   1.898       .  S
O1088      C1095   1.265       .  A
O1089      V1092   1.899       .  S
O1089      C1094   1.264       .  A
O1090      V1092   1.899       .  S
O1090      C1093   1.264       .  A
V1091      V1092   2.085       .  T
C1093      C1437   1.482       .  S
C1094      C1194   1.477       .  S
C1095      C1217   1.481       .  S
C1096      C1227   1.481       .  S
O1097      V2737   1.895       .  S
O1097      C1107   1.264       .  A
O1098      C1108   1.265       .  A
O1099      V1105   1.897       .  S
O1100      V1105   1.898       .  S
O1101      V1106   1.899       .  S
O1101      C2742   1.264       .  A
O1102      V1106   1.900       .  S
O1102      C2741   1.265       .  A
O1103      V2738   1.899   1_455  S
O1103      C1108   1.265       .  A
O1104      C1107   1.266       .  A
V1105      O2729   1.895   1_455  S
V1105      V1922   2.085   1_465  T
V1106      O2735   1.899       .  S
V1106      V1921   2.085       .  T
C1107      C1174   1.483       .  S
C1108      C1184   1.483       .  S
C1109      O2734   1.265       .  A
C1109      C1344   1.482       .  S
C1110      O2733   1.264   1_455  A
C1110      C1264   1.474       .  S
O1111      V1119   1.898       .  S
O1111      C1121   1.265       .  A
O1112      V2751   1.894   1_455  S
O1112      C1122   1.263       .  A
O1113      V1119   1.897       .  S
O1113      C2755   1.264       .  A
O1114      V1119   1.898       .  S
O1114      C2756   1.265       .  A
O1115      V1120   1.899       .  S
O1115      C1124   1.264       .  A
O1116      V1120   1.900       .  S
O1116      C1123   1.264       .  A
O1117      V1120   1.904       .  S
O1117      C1122   1.267       .  A
O1118      V2752   1.901       .  S
O1118      C1121   1.265       .  A
V1119      O2744   1.894       .  S
V1119      V2752   2.085       .  T
V1120      O2750   1.901   1_455  S
V1120      V2751   2.085   1_455  T
C1121      C1154   1.483       .  S
C1122      C1164   1.483       .  S
C1123      O2745   1.264   1_455  A
C1123      C1237   1.469       .  S
C1124      O2746   1.265   1_455  A
C1124      C1317   1.482       .  S
O1125      C1135   1.267       .  A
O1126      V1133   1.902       .  S
O1126      C1136   1.266       .  A
O1127      V1133   1.895       .  S
O1128      V1133   1.896       .  S
O1129      V1134   1.901       .  S
O1129      C1138   1.265       .  A
O1130      V1134   1.902       .  S
O1130      C1137   1.265       .  A
O1131      C1136   1.264       .  A
O1132      V1134   1.895       .  S
O1132      C1135   1.263       .  A
C1135      C1167   1.483       .  S
C1136      C1157   1.482       .  S
C1137      C1204   1.473       .  S
C1138      C1287   1.482       .  S
O1139      V1147   1.901       .  S
O1139      C1149   1.265       .  A
O1140      V1147   1.900       .  S
O1140      C1150   1.265       .  A
O1141      V1147   1.898       .  S
O1141      C1151   1.265       .  A
O1142      V1147   1.897       .  S
O1142      C1152   1.264       .  A
O1143      V1148   1.901       .  S
O1143      C1152   1.266       .  A
O1144      V1148   1.900       .  S
O1144      C1151   1.265       .  A
O1145      V1148   1.898       .  S
O1145      C1150   1.264       .  A
O1146      V1148   1.897       .  S
O1146      C1149   1.264       .  A
V1147      V1148   2.085       .  T
C1149      C1277   1.483       .  S
C1150      C1197   1.476       .  S
C1151      C1187   1.483       .  S
C1152      C1177   1.483       .  S
C1153      C1154   1.406       .  A
C1153      C1158   1.398       .  A
C1153      H1160   1.083       .  S
C1154      C1155   1.408       .  A
C1155      C1156   1.398       .  A
C1155      F1162   1.357       .  S
C1156      C1157   1.406       .  A
C1156      H1161   1.083       .  S
C1157      C1158   1.408       .  A
C1158      F1159   1.357       .  S
C1163      C1164   1.404       .  A
C1163      C1168   1.398       .  A
C1163      H1170   1.083       .  S
C1164      C1165   1.410       .  A
C1165      C1166   1.398       .  A
C1165      F1172   1.357       .  S
C1166      C1167   1.404       .  A
C1166      H1171   1.083       .  S
C1167      C1168   1.410       .  A
C1168      F1169   1.357       .  S
C1173      C1174   1.406       .  A
C1173      C1178   1.397       .  A
C1173      H1180   1.084       .  S
C1174      C1175   1.408       .  A
C1175      C1176   1.399       .  A
C1175      F1182   1.357       .  S
C1176      C1177   1.407       .  A
C1176      H1181   1.084       .  S
C1177      C1178   1.408       .  A
C1178      F1179   1.357       .  S
C1183      C1184   1.406       .  A
C1183      C1188   1.399       .  A
C1183      H1190   1.083       .  S
C1184      C1185   1.408       .  A
C1185      C1186   1.397       .  A
C1185      F1192   1.357       .  S
C1186      C1187   1.405       .  A
C1186      H1191   1.083       .  S
C1187      C1188   1.409       .  A
C1188      F1189   1.357       .  S
C1193      C1194   1.405       .  A
C1193      C1198   1.398       .  A
C1193      H1200   1.083       .  S
C1194      C1195   1.407       .  A
C1195      C1196   1.398       .  A
C1195      F1202   1.358       .  S
C1196      C1197   1.404       .  A
C1196      H1201   1.083       .  S
C1197      C1198   1.406       .  A
C1198      F1199   1.357       .  S
C1203      C1208   1.397       .  A
C1203      H1210   1.083       .  S
C1204      C1205   1.405       .  A
C1205      C1206   1.398       .  A
C1205      F1212   1.357       .  S
C1206      H1211   1.083       .  S
C1207      C1208   1.408       .  A
C1208      F1209   1.358       .  S
C1213      C1214   1.405       .  A
C1213      C1218   1.397       .  A
C1213      H1220   1.083       .  S
C1214      C1215   1.409       .  A
C1215      C1216   1.397       .  A
C1215      F1222   1.357       .  S
C1216      C1217   1.405       .  A
C1216      H1221   1.083       .  S
C1217      C1218   1.409       .  A
C1218      F1219   1.357       .  S
C1223      C1224   1.405       .  A
C1223      C1228   1.397       .  A
C1223      H1230   1.083       .  S
C1224      C1225   1.409       .  A
C1225      C1226   1.397       .  A
C1225      F1232   1.357       .  S
C1226      C1227   1.404       .  A
C1226      H1231   1.083       .  S
C1227      C1228   1.409       .  A
C1228      F1229   1.357       .  S
C1233      C2866   1.407       .  A
C1233      C1238   1.397       .  A
C1233      H1240   1.083       .  S
C1234      C2865   1.407       .  A
C1234      C1235   1.410   1_455  A
C1235      C1236   1.399       .  A
C1235      F1242   1.357       .  S
C1236      C1237   1.402   1_655  A
C1236      H1241   1.083       .  S
C1237      C2870   1.403       .  A
C1238      C2869   1.403       .  A
C1238      F1239   1.358       .  S
C1243      C1244   1.405       .  A
C1243      C1248   1.397       .  A
C1243      H1250   1.083       .  S
C1245      C1246   1.396       .  A
C1245      F1252   1.357       .  S
C1246      H1251   1.083       .  S
C1247      C1248   1.409       .  A
C1248      F1249   1.357       .  S
C1253      C1258   1.397       .  A
C1253      H1260   1.083       .  S
C1254      C1255   1.409       .  A
C1255      C1256   1.397       .  A
C1255      F1262   1.357       .  S
C1256      C1257   1.405       .  A
C1256      H1261   1.083       .  S
C1258      F1259   1.357       .  S
C1263      C1268   1.398       .  A
C1263      H1270   1.083       .  S
C1264      C2897   1.406       .  A
C1265      C2896   1.406       .  A
C1265      C1266   1.398       .  A
C1265      F1272   1.358       .  S
C1266      C2899   1.405       .  A
C1266      H1271   1.083       .  S
C1267      C2898   1.405   1_655  A
C1268      F1269   1.357       .  S
C1273      C1274   1.405       .  A
C1273      C1278   1.397       .  A
C1273      H1280   1.083       .  S
C1274      C1275   1.409       .  A
C1275      C1276   1.398       .  A
C1275      F1282   1.357       .  S
C1276      C1277   1.406       .  A
C1276      H1281   1.083       .  S
C1277      C1278   1.409       .  A
C1278      F1279   1.357       .  S
C1283      C1284   1.406       .  A
C1283      C1288   1.398       .  A
C1283      H1290   1.083       .  S
C1285      C1286   1.397       .  A
C1285      F1292   1.357       .  S
C1286      C1287   1.406   1_545  A
C1286      H1291   1.085       .  S
C1288      F1289   1.357       .  S
C1293      C1294   1.406       .  A
C1293      C1298   1.397       .  A
C1293      H1300   1.083       .  S
C1294      C1295   1.408       .  A
C1295      C1296   1.398       .  A
C1295      F1302   1.357       .  S
C1296      C1297   1.406       .  A
C1296      H1301   1.083       .  S
C1297      C1298   1.408       .  A
C1298      F1299   1.357       .  S
C1303      C1304   1.405       .  A
C1303      C1308   1.398       .  A
C1303      H1310   1.084       .  S
C1304      C1305   1.409       .  A
C1305      C1306   1.398       .  A
C1305      F1312   1.357       .  S
C1306      C1307   1.405       .  A
C1306      H1311   1.083       .  S
C1307      C1308   1.410       .  A
C1308      F1309   1.357       .  S
C1313      C1314   1.405       .  A
C1313      C1318   1.398       .  A
C1313      H1320   1.083       .  S
C1314      C2947   1.408   1_455  A
C1315      C2946   1.408       .  A
C1315      C1316   1.397       .  A
C1315      F1322   1.357       .  S
C1316      C2949   1.405       .  A
C1316      H1321   1.083       .  S
C1317      C2948   1.405   1_455  A
C1317      C1318   1.409       .  A
C1318      F1319   1.357       .  S
C1323      C1324   1.406       .  A
C1323      C1328   1.398       .  A
C1323      H1330   1.083       .  S
C1324      C1325   1.409       .  A
C1325      C1326   1.397       .  A
C1325      F1332   1.357       .  S
C1326      C1327   1.405       .  A
C1326      H1331   1.083       .  S
C1327      C1328   1.409       .  A
C1328      F1329   1.357       .  S
C1333      C1334   1.405       .  A
C1333      C1338   1.399       .  A
C1333      H1340   1.083       .  S
C1334      C1335   1.409       .  A
C1335      C1336   1.397       .  A
C1335      F1342   1.357       .  S
C1336      C1337   1.405       .  A
C1336      H1341   1.083       .  S
C1337      C1338   1.410       .  A
C1338      F1339   1.357       .  S
C1343      C2160   1.405   1_565  A
C1343      C1348   1.397       .  A
C1343      H1350   1.083       .  S
C1344      C2159   1.405   1_655  A
C1344      C1345   1.409       .  A
C1345      C1346   1.398       .  A
C1345      F1352   1.357       .  S
C1346      C1347   1.406   1_655  A
C1346      H1351   1.083       .  S
C1347      C2164   1.408       .  A
C1348      C2163   1.408   1_565  A
C1348      F1349   1.357       .  S
C1353      C1354   1.403       .  A
C1353      C1358   1.398   1_554  A
C1353      H1360   1.083       .  S
C1354      C1355   1.406       .  A
C1355      C1356   1.397   1_554  A
C1355      F1362   1.358       .  S
C1356      C1357   1.404       .  A
C1356      H1361   1.083       .  S
C1357      C1358   1.409       .  A
C1358      F1359   1.357       .  S
C1363      C1364   1.405       .  A
C1363      C1368   1.398       .  A
C1363      H1370   1.083       .  S
C1364      C1365   1.409       .  A
C1365      C1366   1.399       .  A
C1365      F1372   1.357       .  S
C1366      C1367   1.405       .  A
C1366      H1371   1.083       .  S
C1367      C1368   1.409       .  A
C1368      F1369   1.358       .  S
C1373      C1374   1.405       .  A
C1373      C1378   1.398       .  A
C1373      H1380   1.083       .  S
C1374      C1375   1.409       .  A
C1375      C1376   1.397       .  A
C1375      F1382   1.357       .  S
C1376      C1377   1.405       .  A
C1376      H1381   1.083       .  S
C1377      C1378   1.410       .  A
C1378      F1379   1.357       .  S
C1383      C1388   1.398   1_554  A
C1383      H1390   1.083       .  S
C1384      C1385   1.408       .  A
C1385      C1386   1.398   1_554  A
C1385      F1392   1.358       .  S
C1386      C1387   1.403       .  A
C1386      H1391   1.083       .  S
C1388      F1389   1.358       .  S
C1393      C3026   1.407       .  A
C1393      C1398   1.397   1_554  A
C1393      H1400   1.083       .  S
C1394      C2587   1.482       .  S
C1394      C3025   1.407   1_655  A
C1394      C1395   1.411       .  A
C1395      C1396   1.399   1_554  A
C1395      F1402   1.357       .  S
C1396      C1397   1.401       .  A
C1396      H1401   1.083       .  S
C1397      C3030   1.403   1_655  A
C1398      C3029   1.403       .  A
C1398      F1399   1.358       .  S
C1403      C3036   1.406   1_455  A
C1403      C1408   1.398       .  A
C1403      H1410   1.083       .  S
C1404      C2572   1.483       .  S
C1404      C3035   1.406       .  A
C1404      C1405   1.409       .  A
C1405      C1406   1.397       .  A
C1405      F1412   1.357       .  S
C1406      C1407   1.405       .  A
C1406      H1411   1.083       .  S
C1407      C3040   1.409       .  A
C1408      C3039   1.409   1_455  A
C1408      F1409   1.357       .  S
C1413      C3046   1.405   1_455  A
C1413      C1418   1.398       .  A
C1413      H1420   1.083       .  S
C1414      C2571   1.483       .  S
C1414      C3045   1.405       .  A
C1414      C1415   1.409       .  A
C1415      C1416   1.398       .  A
C1415      F1422   1.357       .  S
C1416      C1417   1.405       .  A
C1416      H1421   1.083       .  S
C1417      C3050   1.409       .  A
C1418      C3049   1.409   1_455  A
C1418      F1419   1.357       .  S
C1423      C2240   1.406   1_545  A
C1423      C1428   1.398   1_556  A
C1423      H1430   1.083       .  S
C1424      C2239   1.406       .  A
C1424      C1425   1.407   1_655  A
C1425      C1426   1.397   1_556  A
C1425      F1432   1.357       .  S
C1426      C1427   1.404   1_455  A
C1426      H1431   1.083       .  S
C1427      C2244   1.405       .  A
C1428      C2243   1.405   1_545  A
C1428      F1429   1.358       .  S
C1433      C1434   1.406       .  A
C1433      C1438   1.398       .  A
C1433      H1440   1.083       .  S
C1434      C1435   1.409       .  A
C1435      C1436   1.397       .  A
C1435      F1442   1.357       .  S
C1436      C1437   1.405       .  A
C1436      H1441   1.083       .  S
C1437      C1438   1.409       .  A
C1438      F1439   1.357       .  S
C1443      C1448   1.397       .  A
C1443      H1450   1.083       .  S
C1444      C1445   1.408       .  A
C1445      C1446   1.398       .  A
C1445      F1452   1.357       .  S
C1446      C1447   1.406       .  A
C1446      H1451   1.083       .  S
C1448      F1449   1.357       .  S
C1453      C1454   1.405   1_455  A
C1453      C1458   1.398       .  A
C1453      H1460   1.083       .  S
C1454      C3087   1.408       .  A
C1455      C3086   1.408       .  A
C1455      C1456   1.397       .  A
C1455      F1462   1.357       .  S
C1456      C3089   1.404       .  A
C1456      H1461   1.083       .  S
C1457      C3088   1.404       .  A
C1457      C1458   1.408   1_655  A
C1458      F1459   1.358       .  S
C1463      C1464   1.405       .  A
C1463      C1468   1.398       .  A
C1463      H1470   1.083       .  S
C1464      C1465   1.409       .  A
C1465      C1466   1.397       .  A
C1465      F1472   1.357       .  S
C1466      C1467   1.404       .  A
C1466      H1471   1.083       .  S
C1467      C1468   1.409       .  A
C1468      F1469   1.357       .  S
C1473      C1474   1.405       .  A
C1473      C1478   1.397       .  A
C1473      H1480   1.083       .  S
C1474      C1475   1.408       .  A
C1475      C1476   1.397       .  A
C1475      F1482   1.357       .  S
C1476      C1477   1.405       .  A
C1476      H1481   1.083       .  S
C1477      C1478   1.407       .  A
C1478      F1479   1.358       .  S
C1483      C3116   1.405       .  A
C1483      C1488   1.397       .  A
C1483      H1490   1.083       .  S
C1484      C3115   1.405       .  A
C1485      C1486   1.397       .  A
C1485      F1492   1.357       .  S
C1486      H1491   1.083       .  S
C1487      C3120   1.408       .  A
C1488      C3119   1.408       .  A
C1488      F1489   1.357       .  S
C1493      C1498   1.398       .  A
C1493      H1500   1.083       .  S
C1494      C1495   1.408       .  A
C1495      C1496   1.397       .  A
C1495      F1502   1.357       .  S
C1496      C1497   1.405       .  A
C1496      H1501   1.083       .  S
C1498      F1499   1.357       .  S
C1503      C1508   1.396       .  A
C1503      H1510   1.083       .  S
C1504      C1505   1.408       .  A
C1505      C1506   1.397       .  A
C1505      F1512   1.357       .  S
C1506      C1507   1.406       .  A
C1506      H1511   1.083       .  S
C1508      F1509   1.357       .  S
C1513      C1514   1.405       .  A
C1513      C1518   1.398       .  A
C1513      H1520   1.083       .  S
C1514      C1515   1.408       .  A
C1515      C1516   1.397       .  A
C1515      F1522   1.357       .  S
C1516      C1517   1.404       .  A
C1516      H1521   1.083       .  S
C1517      C1518   1.409       .  A
C1518      F1519   1.358       .  S
C1523      C1524   1.405       .  A
C1523      C1528   1.399       .  A
C1523      H1530   1.083       .  S
C1524      C1525   1.407       .  A
C1525      C1526   1.396       .  A
C1525      F1532   1.357       .  S
C1526      C1527   1.403       .  A
C1526      H1531   1.083       .  S
C1527      C1528   1.406       .  A
C1528      F1529   1.358       .  S
C1533      C1534   1.405       .  A
C1533      C1538   1.398       .  A
C1533      H1540   1.083       .  S
C1534      C1535   1.410       .  A
C1535      C1536   1.398       .  A
C1535      F1542   1.357       .  S
C1536      C1537   1.405       .  A
C1536      H1541   1.083       .  S
C1537      C1538   1.410       .  A
C1538      F1539   1.357       .  S
C1543      C1544   1.406       .  A
C1543      C1548   1.398       .  A
C1543      H1550   1.083       .  S
C1544      C1545   1.408       .  A
C1545      C1546   1.398       .  A
C1545      F1552   1.357       .  S
C1546      C1547   1.406       .  A
C1546      H1551   1.083       .  S
C1547      C1548   1.408       .  A
C1548      F1549   1.358       .  S
C1553      C1554   1.405   1_565  A
C1553      C1558   1.397       .  A
C1553      H1560   1.083       .  S
C1555      C1556   1.398       .  A
C1555      F1562   1.358       .  S
C1556      H1561   1.083       .  S
C1557      C1558   1.408   1_545  A
C1558      F1559   1.357       .  S
C1563      C1564   1.404   1_565  A
C1563      C1568   1.398       .  A
C1563      H1570   1.083       .  S
C1565      C1566   1.398       .  A
C1565      F1572   1.358       .  S
C1566      C1567   1.404       .  A
C1566      H1571   1.083       .  S
C1568      F1569   1.358       .  S
C1573      C1574   1.406       .  A
C1573      C1578   1.398       .  A
C1573      H1580   1.083       .  S
C1574      C3207   1.409   1_455  A
C1575      C3206   1.409       .  A
C1575      C1576   1.397       .  A
C1575      F1582   1.357       .  S
C1576      C3209   1.405       .  A
C1576      H1581   1.083       .  S
C1577      C3208   1.405   1_455  A
C1577      C1578   1.409       .  A
C1578      F1579   1.357       .  S
C1583      C3216   1.403       .  A
C1583      C1588   1.397       .  A
C1583      H1590   1.083       .  S
C1584      C3215   1.403   1_455  A
C1584      C1585   1.406       .  A
C1585      C1586   1.398       .  A
C1585      F1592   1.358       .  S
C1586      C1587   1.405       .  A
C1586      H1591   1.083       .  S
C1587      C3220   1.407   1_455  A
C1588      C3219   1.407       .  A
C1588      F1589   1.357       .  S
C1593      C1594   1.405       .  A
C1593      C1598   1.397       .  A
C1593      H1600   1.084       .  S
C1594      C3227   1.409       .  A
C1595      C3226   1.409       .  A
C1595      C1596   1.399       .  A
C1595      F1602   1.357       .  S
C1596      C1597   1.406       .  A
C1596      H1601   1.084       .  S
C1597      C3230   1.409   1_455  A
C1598      C3229   1.409       .  A
C1598      F1599   1.357       .  S
C1603      C3236   1.406       .  A
C1603      C1608   1.399       .  A
C1603      H1610   1.084       .  S
C1604      C3235   1.406   1_455  A
C1604      C1605   1.408       .  A
C1605      C1606   1.397       .  A
C1605      F1612   1.357       .  S
C1606      C3239   1.406   1_455  A
C1606      H1611   1.084       .  S
C1607      C3238   1.406       .  A
C1607      C1608   1.408       .  A
C1608      F1609   1.357       .  S
C1613      C1614   1.405   1_455  A
C1613      C1618   1.398       .  A
C1613      H1620   1.083       .  S
C1614      C2431   1.409       .  A
C1615      C2430   1.409   1_565  A
C1615      C1616   1.397       .  A
C1615      F1622   1.357       .  S
C1616      C2433   1.405   1_565  A
C1616      H1621   1.083       .  S
C1617      C2432   1.405       .  A
C1617      C1618   1.409   1_655  A
C1618      F1619   1.357       .  S
C1623      C2440   1.403   1_565  A
C1623      C1628   1.397       .  A
C1623      H1630   1.083       .  S
C1624      C2439   1.404   1_455  A
C1624      C1625   1.407       .  A
C1625      C1626   1.398       .  A
C1625      F1632   1.357       .  S
C1626      C1627   1.404       .  A
C1626      H1631   1.083       .  S
C1627      C2444   1.407   1_455  A
C1628      C2443   1.408   1_565  A
C1628      F1629   1.358       .  S
O1633      V2457   1.900       .  S
O1634      V1641   1.896       .  S
O1635      V1641   1.900       .  S
O1635      C1645   1.265       .  A
O1636      V1641   1.900       .  S
O1636      C1646   1.265       .  A
O1637      V1642   1.896       .  S
O1638      V1642   1.895       .  S
O1639      V2458   1.902   1_545  S
O1639      C1644   1.265       .  A
O1640      V1642   1.899       .  S
O1640      C1643   1.265   1_655  A
V1641      O2449   1.900   1_545  S
V1642      O2455   1.903       .  S
C1643      C2410   1.483       .  S
C1644      C2423   1.483       .  S
C1645      C2443   1.476       .  S
C1646      C2430   1.481       .  S
O1647      V1655   1.901       .  S
O1647      C1657   1.265       .  A
O1648      V1655   1.900       .  S
O1648      C1658   1.265       .  A
O1649      V1655   1.900       .  S
O1649      C1659   1.264       .  A
O1650      V1655   1.899       .  S
O1650      C1660   1.265       .  A
O1651      V1656   1.898       .  S
O1652      V1656   1.897       .  S
O1653      V1656   1.899       .  S
O1654      V1656   1.898       .  S
C1657      C2420   1.482       .  S
C1658      C2413   1.483       .  S
C1659      C2400   1.475       .  S
C1660      C2390   1.482       .  S
O1661      V2485   1.905       .  S
O1661      C1671   1.267       .  A
O1662      V1669   1.902       .  S
O1662      C1672   1.266       .  A
O1663      V1669   1.896       .  S
O1663      C2489   1.264       .  A
O1664      V1669   1.896       .  S
O1664      C2490   1.264       .  A
O1665      V1670   1.900       .  S
O1665      C1674   1.266       .  A
O1666      V1670   1.900       .  S
O1666      C1673   1.265       .  A
O1667      V2486   1.896   1_545  S
O1667      C1672   1.264       .  A
O1668      V1670   1.894       .  S
O1668      C1671   1.263       .  A
V1669      O2477   1.904   1_545  S
V1669      V2486   2.085   1_545  T
V1670      O2483   1.896       .  S
V1670      V2485   2.085       .  T
C1671      C2350   1.484       .  S
C1672      C2360   1.482       .  S
C1673      O2479   1.264       .  A
C1673      C2380   1.475       .  S
C1674      O2480   1.264       .  A
C1674      C2370   1.481       .  S
O1675      V1683   1.897       .  S
O1675      C1685   1.264       .  A
O1676      V1683   1.895       .  S
O1676      C1686   1.263       .  A
O1677      V1683   1.896       .  S
O1677      C1687   1.264       .  A
O1678      V1683   1.896       .  S
O1678      C1688   1.264       .  A
O1679      V1684   1.900       .  S
O1679      C1688   1.265       .  A
O1680      V1684   1.899       .  S
O1680      C1687   1.264       .  A
O1681      V1684   1.904       .  S
O1681      C1686   1.267       .  A
O1682      V1684   1.901       .  S
O1682      C1685   1.265       .  A
V1683      V1684   2.086       .  T
C1685      C2363   1.482       .  S
C1686      C2353   1.484       .  S
C1687      C2340   1.476       .  S
C1688      C2330   1.478       .  S
O1689      V1697   1.898       .  S
O1690      V1697   1.898       .  S
O1691      C2517   1.265       .  A
O1692      V1697   1.897       .  S
O1692      C2518   1.265       .  A
O1693      C1702   1.265       .  A
O1694      V1698   1.895       .  S
O1694      C1701   1.264       .  A
O1695      V1698   1.898       .  S
O1695      C1700   1.264       .  A
O1696      V1698   1.898       .  S
O1696      C1699   1.264       .  A
C1699      C2303   1.481       .  S
C1700      C2440   1.475       .  S
C1701      O2507   1.265   1_545  A
C1701      C2323   1.480       .  S
C1702      O2508   1.265   1_545  A
C1702      C2310   1.481       .  S
O1703      V1711   1.900       .  S
O1703      C1713   1.265       .  A
O1704      V1711   1.900       .  S
O1704      C1714   1.265       .  A
O1705      C1715   1.266       .  A
O1706      V1711   1.899       .  S
O1706      C1716   1.265       .  A
O1707      C1716   1.264       .  A
O1708      V1712   1.895       .  S
O1708      C1715   1.264       .  A
O1709      V1712   1.897       .  S
O1710      V1712   1.898       .  S
C1713      C2270   1.481       .  S
C1714      C2403   1.477       .  S
C1715      C2280   1.482       .  S
C1716      C2290   1.480       .  S
O1717      V1725   1.899       .  S
O1717      C2543   1.265       .  A
O1718      V1725   1.895       .  S
O1718      C2544   1.264       .  A
O1719      V1725   1.897       .  S
O1719      C2545   1.264       .  A
O1720      V1725   1.897       .  S
O1720      C2546   1.265       .  A
O1721      V1726   1.898       .  S
O1721      C1730   1.264       .  A
O1722      V1726   1.898       .  S
O1722      C1729   1.264       .  A
O1723      V1726   1.899       .  S
O1723      C1728   1.265       .  A
O1724      V1726   1.897       .  S
O1724      C1727   1.265       .  A
V1725      V2542   2.085       .  T
V1726      V2541   2.086   1_545  T
C1727      O2533   1.265   1_545  A
C1727      C2313   1.481       .  S
C1728      O2534   1.264   1_545  A
C1728      C2320   1.480       .  S
C1729      O2535   1.264   1_545  A
C1729      C2383   1.475       .  S
C1730      O2536   1.265   1_545  A
C1730      C2260   1.481       .  S
O1731      V1739   1.901       .  S
O1731      C1741   1.266       .  A
O1732      V1739   1.898       .  S
O1732      C1742   1.264       .  A
O1733      V1739   1.898       .  S
O1733      C1743   1.264       .  A
O1734      V1739   1.900       .  S
O1734      C1744   1.265       .  A
O1735      V1740   1.897       .  S
O1735      C1744   1.264       .  A
O1736      V1740   1.897       .  S
O1736      C1743   1.264       .  A
O1737      V1740   1.898       .  S
O1737      C1742   1.265       .  A
O1738      V1740   1.897       .  S
O1738      C1741   1.264       .  A
V1739      V1740   2.086       .  T
C1741      C2283   1.482       .  S
C1742      C2293   1.479       .  S
C1743      C2343   1.472       .  S
C1744      C2250   1.482       .  S
O1745      V1753   1.902       .  S
O1745      C1755   1.266       .  A
O1746      V2569   1.899       .  S
O1746      C1756   1.265       .  A
O1747      V1753   1.895       .  S
O1747      C1757   1.263   1_545  A
O1748      V1753   1.896       .  S
O1748      C1758   1.264       .  A
O1749      V1754   1.899       .  S
O1750      V1754   1.900       .  S
O1751      V1754   1.898       .  S
O1752      V2570   1.897   1_545  S
V1753      O2562   1.900   1_545  S
V1754      O2568   1.897       .  S
C1757      C2243   1.473       .  S
C1758      C2433   1.481       .  S
O1759      V1767   1.899       .  S
O1760      V1767   1.897       .  S
O1761      V1767   1.897       .  S
O1762      V1767   1.898       .  S
O1762      C1772   1.264       .  A
O1763      V1768   1.899       .  S
O1764      V1768   1.900       .  S
O1764      C1771   1.264       .  A
O1765      V1768   1.901       .  S
O1765      C1770   1.266       .  A
O1766      V1768   1.900       .  S
O1766      C1769   1.265       .  A
C1769      C2223   1.483       .  S
C1770      C2233   1.483       .  S
C1772      C2393   1.482       .  S
O1773      V1781   1.896       .  S
O1773      C2599   1.264       .  A
O1774      V1781   1.897       .  S
O1774      C2600   1.264       .  A
O1775      V2597   1.895   1_545  S
O1775      C1785   1.264       .  A
O1776      V1781   1.899       .  S
O1776      C1786   1.265       .  A
O1777      V2598   1.901       .  S
O1777      C1786   1.265       .  A
O1778      V1782   1.903       .  S
O1778      C1785   1.266       .  A
O1779      V1782   1.900       .  S
O1779      C1784   1.265       .  A
O1780      V1782   1.901       .  S
O1780      C1783   1.265       .  A
V1781      O2591   1.895       .  S
V1781      V2598   2.085       .  T
V1782      O2593   1.901   1_545  S
V1782      V2597   2.085   1_545  T
C1783      O2589   1.264   1_545  A
C1783      C2200   1.477       .  S
C1784      O2590   1.264   1_545  A
C1784      C3189   1.481       .  S
C1785      C2190   1.483       .  S
C1786      C2180   1.483       .  S
O1787      V1795   1.897       .  S
O1787      C1797   1.264       .  A
O1788      V1795   1.896       .  S
O1788      C1798   1.263       .  A
O1789      V1795   1.901       .  S
O1789      C1799   1.265       .  A
O1790      V1795   1.900       .  S
O1790      C1800   1.265       .  A
O1791      V1796   1.896       .  S
O1791      C1800   1.264       .  A
O1792      V1796   1.895       .  S
O1792      C1799   1.263       .  A
O1793      V1796   1.903       .  S
O1793      C1798   1.266       .  A
O1794      V1796   1.902       .  S
O1794      C1797   1.266       .  A
V1795      V1796   2.086       .  T
C1797      C2183   1.482       .  S
C1798      C2193   1.483       .  S
C1799      C2170   1.474       .  S
C1800      C2333   1.479       .  S
O1801      C1811   1.266       .  A
O1802      V2625   1.899       .  S
O1802      C1812   1.265       .  A
O1803      V1809   1.897       .  S
O1804      V1809   1.898       .  S
O1805      V1810   1.899       .  S
O1805      C2630   1.265       .  A
O1806      V1810   1.898       .  S
O1806      C2629   1.264       .  A
O1807      C1812   1.264       .  A
O1808      V2626   1.898   1_545  S
O1808      C1811   1.264       .  A
V1809      O2618   1.899   1_545  S
V1810      O2624   1.898       .  S
C1811      C2153   1.483       .  S
C1812      C2140   1.482       .  S
C1813      O2622   1.264   1_545  A
C1813      C2240   1.477   1_545  S
C1814      O2621   1.265   1_545  A
C1814      C2163   1.482       .  S
O1815      V1823   1.897       .  S
O1815      C1825   1.264       .  A
O1816      C1826   1.265       .  A
O1817      V1823   1.899       .  S
O1817      C1827   1.265       .  A
O1818      V1823   1.897       .  S
O1818      C1828   1.264       .  A
O1819      V1824   1.899       .  S
O1820      V1824   1.898       .  S
O1821      V1824   1.897       .  S
O1821      C1826   1.265       .  A
O1822      C1825   1.266       .  A
C1825      C2120   1.483       .  S
C1826      C2113   1.482       .  S
C1827      C2130   1.482       .  S
C1828      C2213   1.471       .  S
O1829      V2653   1.897   1_545  S
O1829      C1839   1.265       .  A
O1830      V1837   1.901       .  S
O1830      C1840   1.266       .  A
O1831      V1837   1.897       .  S
O1831      C2657   1.264       .  A
O1832      V1837   1.896       .  S
O1832      C2658   1.263       .  A
O1833      V1838   1.901       .  S
O1833      C1842   1.265       .  A
O1834      V1838   1.900       .  S
O1834      C1841   1.265   1_545  A
O1835      V2654   1.898       .  S
O1835      C1840   1.264       .  A
O1836      V1838   1.899       .  S
O1836      C1839   1.265       .  A
V1837      O2645   1.897       .  S
V1837      V2654   2.086       .  T
V1838      O2651   1.897   1_545  S
V1838      V2653   2.086   1_545  T
C1839      C2110   1.482       .  S
C1840      C2123   1.483       .  S
C1841      O2647   1.264       .  A
C1841      C2100   1.481       .  S
C1842      O2648   1.263   1_545  A
C1842      C2203   1.474       .  S
O1843      V1851   1.899       .  S
O1843      C1853   1.264       .  A
O1844      V1851   1.897       .  S
O1844      C1854   1.264       .  A
O1845      V1851   1.899       .  S
O1845      C1855   1.265       .  A
O1846      V1851   1.899       .  S
O1846      C1856   1.265       .  A
O1847      V1852   1.898       .  S
O1847      C1856   1.265       .  A
O1848      V1852   1.898       .  S
O1848      C1855   1.264       .  A
O1849      V1852   1.902       .  S
O1849      C1854   1.266       .  A
O1850      V1852   1.898       .  S
O1850      C1853   1.265       .  A
V1851      V1852   2.085       .  T
C1853      C2143   1.482       .  S
C1854      C2150   1.483       .  S
C1855      C2173   1.478       .  S
C1856      C2090   1.483       .  S
O1857      V1865   1.899       .  S
O1857      C1867   1.265       .  A
O1858      V1865   1.899       .  S
O1858      C1868   1.265       .  A
O1859      V1865   1.896       .  S
O1859      C1869   1.264       .  A
O1860      C1870   1.263       .  A
O1861      V1866   1.899       .  S
O1861      C2686   1.265       .  A
O1862      C2685   1.265       .  A
O1863      V1866   1.898       .  S
O1864      V1866   1.898       .  S
C1867      C2300   1.482       .  S
C1868      C2083   1.478       .  S
C1869      O2678   1.265   1_545  A
C1869      C2070   1.481       .  S
C1870      O2677   1.265   1_545  A
C1870      C2063   1.480       .  S
O1871      V1879   1.896       .  S
O1871      C1881   1.264       .  A
O1872      C1882   1.263       .  A
O1873      V1879   1.900       .  S
O1874      V1879   1.900       .  S
O1875      V1880   1.897       .  S
O1875      C1884   1.264       .  A
O1876      V1880   1.896       .  S
O1876      C1883   1.264       .  A
O1877      V1880   1.901       .  S
O1877      C1882   1.266       .  A
O1878      C1881   1.265       .  A
C1881      C2030   1.481       .  S
C1882      C2040   1.480       .  S
C1883      C2050   1.480       .  S
C1884      C2273   1.480       .  S
O1885      V1893   1.897       .  S
O1885      C2711   1.264       .  A
O1886      V1893   1.895       .  S
O1886      C2712   1.264       .  A
O1887      V1893   1.899       .  S
O1887      C2713   1.265       .  A
O1888      V1893   1.898       .  S
O1888      C2714   1.264       .  A
O1889      V1894   1.898       .  S
O1889      C1898   1.265       .  A
O1890      V1894   1.898       .  S
O1890      C1897   1.264       .  A
O1891      V1894   1.899       .  S
O1891      C1896   1.265       .  A
O1892      V1894   1.899       .  S
O1892      C1895   1.265       .  A
V1893      V2710   2.085       .  T
V1894      V2709   2.085   1_545  T
C1895      O2701   1.264   1_545  A
C1895      C2073   1.481       .  S
C1896      O2702   1.263   1_545  A
C1896      C2060   1.480       .  S
C1897      O2703   1.265   1_545  A
C1897      C2023   1.478       .  S
C1898      O2704   1.264   1_545  A
C1898      C2263   1.481       .  S
O1899      V1907   1.898       .  S
O1899      C1909   1.265       .  A
O1900      V1907   1.899       .  S
O1900      C1910   1.265       .  A
O1901      V1907   1.896       .  S
O1901      C1911   1.264       .  A
O1902      V1907   1.894       .  S
O1902      C1912   1.263       .  A
O1903      V1908   1.900       .  S
O1903      C1912   1.266       .  A
O1904      V1908   1.899       .  S
O1904      C1911   1.265       .  A
O1905      V1908   1.899       .  S
O1905      C1910   1.264       .  A
O1906      V1908   1.899       .  S
O1906      C1909   1.264       .  A
V1907      V1908   2.085       .  T
C1909      C2253   1.482       .  S
C1910      C2010   1.477       .  S
C1911      C2033   1.481       .  S
C1912      C2043   1.481       .  S
O1913      C1923   1.264       .  A
O1914      V2737   1.899   1_545  S
O1914      C1924   1.265       .  A
O1915      V1921   1.897       .  S
O1915      C2741   1.265       .  A
O1916      V1921   1.898       .  S
O1916      C2742   1.264       .  A
O1917      V1922   1.899       .  S
O1918      V1922   1.900       .  S
O1919      C1924   1.265       .  A
O1920      V2738   1.903       .  S
O1920      C1923   1.266       .  A
V1921      O2730   1.899       .  S
V1922      O2736   1.903   1_545  S
C1923      C1990   1.483       .  S
C1924      C2000   1.483       .  S
C1925      O2731   1.265   1_545  A
C1925      C2160   1.481       .  S
C1926      O2732   1.264   1_545  A
C1926      C2080   1.474       .  S
O1927      V1935   1.897       .  S
O1927      C1937   1.265       .  A
O1928      C1938   1.263       .  A
O1929      V1935   1.897       .  S
O1930      V1935   1.898       .  S
O1931      V1936   1.898       .  S
O1931      C1940   1.264       .  A
O1932      V1936   1.899       .  S
O1932      C1939   1.264       .  A
O1933      V1936   1.904       .  S
O1933      C1938   1.267       .  A
O1934      C1937   1.265       .  A
C1937      C1970   1.483       .  S
C1938      C1980   1.482       .  S
C1939      C2053   1.470       .  S
C1940      C2133   1.482       .  S
O1941      V2765   1.904       .  S
O1941      C1951   1.267       .  A
O1942      V1949   1.901       .  S
O1942      C1952   1.265       .  A
O1943      V1949   1.895       .  S
O1943      C2769   1.263   1_545  A
O1944      V1949   1.895       .  S
O1944      C2770   1.264   1_545  A
O1945      V1950   1.902       .  S
O1945      C1954   1.265       .  A
O1946      V1950   1.902       .  S
O1946      C1953   1.265       .  A
O1947      V2766   1.896   1_545  S
O1947      C1952   1.264       .  A
O1948      V1950   1.894       .  S
O1948      C1951   1.263       .  A
V1949      O2757   1.904   1_545  S
V1949      V2766   2.085   1_545  T
V1950      O2763   1.896       .  S
V1950      V2765   2.085       .  T
C1951      C1983   1.483       .  S
C1952      C1973   1.482       .  S
C1953      O2759   1.263       .  A
C1953      C2020   1.473       .  S
C1954      O2760   1.264       .  A
C1954      C2103   1.482       .  S
O1955      V1963   1.900       .  S
O1955      C1965   1.265       .  A
O1956      V1963   1.900       .  S
O1956      C1966   1.264       .  A
O1957      V1963   1.897       .  S
O1957      C1967   1.265       .  A
O1958      V1963   1.896       .  S
O1958      C1968   1.264       .  A
O1959      V1964   1.902       .  S
O1959      C1968   1.266       .  A
O1960      V1964   1.900       .  S
O1960      C1967   1.265       .  A
O1961      V1964   1.898       .  S
O1961      C1966   1.264       .  A
O1962      V1964   1.898       .  S
O1962      C1965   1.264       .  A
V1963      V1964   2.085       .  T
C1965      C2093   1.483       .  S
C1966      C2013   1.476       .  S
C1967      C2003   1.483       .  S
C1968      C1993   1.483       .  S
C1969      C1970   1.406       .  A
C1969      C1974   1.398       .  A
C1969      H1976   1.083       .  S
C1970      C1971   1.408       .  A
C1971      C1972   1.398       .  A
C1971      F1978   1.357       .  S
C1972      C1973   1.406       .  A
C1972      H1977   1.083       .  S
C1973      C1974   1.408       .  A
C1974      F1975   1.357       .  S
C1979      C1980   1.404       .  A
C1979      C1984   1.398       .  A
C1979      H1986   1.083       .  S
C1980      C1981   1.410       .  A
C1981      C1982   1.398       .  A
C1981      F1988   1.357       .  S
C1982      C1983   1.404       .  A
C1982      H1987   1.083       .  S
C1983      C1984   1.410       .  A
C1984      F1985   1.357       .  S
C1989      C1990   1.406       .  A
C1989      C1994   1.397       .  A
C1989      H1996   1.083       .  S
C1990      C1991   1.408       .  A
C1991      C1992   1.399       .  A
C1991      F1998   1.357       .  S
C1992      C1993   1.407       .  A
C1992      H1997   1.084       .  S
C1993      C1994   1.407       .  A
C1994      F1995   1.357       .  S
C1999      C2000   1.406       .  A
C1999      C2004   1.399       .  A
C1999      H2006   1.083       .  S
C2000      C2001   1.408       .  A
C2001      C2002   1.397       .  A
C2001      F2008   1.357       .  S
C2002      C2003   1.405       .  A
C2002      H2007   1.083       .  S
C2003      C2004   1.409       .  A
C2004      F2005   1.357       .  S
C2009      C2010   1.405       .  A
C2009      C2014   1.398       .  A
C2009      H2016   1.083       .  S
C2010      C2011   1.407       .  A
C2011      C2012   1.398       .  A
C2011      F2018   1.358       .  S
C2012      C2013   1.404       .  A
C2012      H2017   1.083       .  S
C2013      C2014   1.406       .  A
C2014      F2015   1.357       .  S
C2019      C2836   1.403   1_545  A
C2019      C2024   1.397       .  A
C2019      H2026   1.083       .  S
C2020      C2835   1.403       .  A
C2020      C2021   1.405       .  A
C2021      C2022   1.398       .  A
C2021      F2028   1.357       .  S
C2022      C2839   1.406       .  A
C2022      H2027   1.083       .  S
C2023      C2838   1.406   1_545  A
C2023      C2024   1.408       .  A
C2024      F2025   1.358       .  S
C2029      C2030   1.405       .  A
C2029      C2034   1.397       .  A
C2029      H2036   1.083       .  S
C2030      C2031   1.409       .  A
C2031      C2032   1.397       .  A
C2031      F2038   1.357       .  S
C2032      C2033   1.405       .  A
C2032      H2037   1.083       .  S
C2033      C2034   1.409       .  A
C2034      F2035   1.357       .  S
C2039      C2040   1.404       .  A
C2039      C2044   1.397       .  A
C2039      H2046   1.083       .  S
C2040      C2041   1.409       .  A
C2041      C2042   1.397       .  A
C2041      F2048   1.357       .  S
C2042      C2043   1.404       .  A
C2042      H2047   1.083       .  S
C2043      C2044   1.409       .  A
C2044      F2045   1.357       .  S
C2049      C2054   1.397       .  A
C2049      H2056   1.083       .  S
C2050      C2051   1.410       .  A
C2051      C2052   1.399       .  A
C2051      F2058   1.357       .  S
C2052      C2053   1.402       .  A
C2052      H2057   1.083       .  S
C2054      F2055   1.358       .  S
C2059      C2060   1.405       .  A
C2059      C2064   1.397       .  A
C2059      H2066   1.083       .  S
C2060      C2877   1.409   1_545  A
C2061      C2876   1.409       .  A
C2061      C2062   1.397       .  A
C2061      F2068   1.357       .  S
C2062      C2879   1.405       .  A
C2062      H2067   1.083       .  S
C2063      C2878   1.404   1_545  A
C2063      C2064   1.409       .  A
C2064      F2065   1.357       .  S
C2069      C2886   1.405       .  A
C2069      C2074   1.397       .  A
C2069      H2076   1.083       .  S
C2070      C2885   1.405   1_545  A
C2070      C2071   1.409       .  A
C2071      C2072   1.397       .  A
C2071      F2078   1.357       .  S
C2072      C2073   1.405       .  A
C2072      H2077   1.083       .  S
C2073      C2890   1.409   1_545  A
C2074      C2889   1.409       .  A
C2074      F2075   1.357       .  S
C2079      C2896   1.403       .  A
C2079      C2084   1.398       .  A
C2079      H2086   1.083       .  S
C2080      C2895   1.403   1_545  A
C2081      C2082   1.398       .  A
C2081      F2088   1.358       .  S
C2082      H2087   1.083       .  S
C2083      C2900   1.408   1_545  A
C2084      C2899   1.408       .  A
C2084      F2085   1.357       .  S
C2089      C2090   1.405       .  A
C2089      C2094   1.398       .  A
C2089      H2096   1.083       .  S
C2090      C2091   1.409       .  A
C2091      C2092   1.398       .  A
C2091      F2098   1.357       .  S
C2092      C2093   1.405       .  A
C2092      H2097   1.083       .  S
C2093      C2094   1.409       .  A
C2094      F2095   1.357       .  S
C2099      C2100   1.406       .  A
C2099      C2104   1.397       .  A
C2099      H2106   1.085       .  S
C2100      C2917   1.408   1_565  A
C2101      C2916   1.408       .  A
C2101      C2102   1.398       .  A
C2101      F2108   1.357       .  S
C2102      C2103   1.406       .  A
C2102      H2107   1.083       .  S
C2103      C2920   1.408       .  A
C2104      C2919   1.408       .  A
C2104      F2105   1.357       .  S
C2109      C2110   1.405       .  A
C2109      C2114   1.397       .  A
C2109      H2116   1.083       .  S
C2110      C2111   1.408       .  A
C2111      C2112   1.398       .  A
C2111      F2118   1.357       .  S
C2112      C2113   1.406       .  A
C2112      H2117   1.083       .  S
C2113      C2114   1.408       .  A
C2114      F2115   1.357       .  S
C2119      C2120   1.405       .  A
C2119      C2124   1.398       .  A
C2119      H2126   1.084       .  S
C2120      C2121   1.409       .  A
C2121      C2122   1.398       .  A
C2121      F2128   1.357       .  S
C2122      C2123   1.405       .  A
C2122      H2127   1.083       .  S
C2123      C2124   1.409       .  A
C2124      F2125   1.357       .  S
C2129      C2130   1.405       .  A
C2129      C2134   1.398       .  A
C2129      H2136   1.083       .  S
C2131      C2132   1.397       .  A
C2131      F2138   1.357       .  S
C2132      H2137   1.083       .  S
C2133      C2134   1.409       .  A
C2134      F2135   1.357       .  S
C2139      C2140   1.406       .  A
C2139      C2144   1.398       .  A
C2139      H2146   1.083       .  S
C2140      C2141   1.409       .  A
C2141      C2142   1.396       .  A
C2141      F2148   1.357       .  S
C2142      C2143   1.405       .  A
C2142      H2147   1.083       .  S
C2143      C2144   1.409       .  A
C2144      F2145   1.357       .  S
C2149      C2150   1.406       .  A
C2149      C2154   1.399       .  A
C2149      H2156   1.083       .  S
C2150      C2151   1.409       .  A
C2151      C2152   1.397       .  A
C2151      F2158   1.357       .  S
C2152      C2153   1.405       .  A
C2152      H2157   1.083       .  S
C2153      C2154   1.410       .  A
C2154      F2155   1.357       .  S
C2159      C2164   1.397       .  A
C2159      H2166   1.083       .  S
C2160      C2161   1.408       .  A
C2161      C2162   1.398       .  A
C2161      F2168   1.357       .  S
C2162      C2163   1.406       .  A
C2162      H2167   1.083       .  S
C2164      F2165   1.357       .  S
C2169      C2170   1.403       .  A
C2169      C2174   1.398   1_554  A
C2169      H2176   1.083       .  S
C2170      C2171   1.406       .  A
C2171      C2172   1.397   1_554  A
C2171      F2178   1.358       .  S
C2172      C2173   1.405       .  A
C2172      H2177   1.083       .  S
C2173      C2174   1.409       .  A
C2174      F2175   1.357       .  S
C2179      C2180   1.405       .  A
C2179      C2184   1.398       .  A
C2179      H2186   1.083       .  S
C2180      C2181   1.409       .  A
C2181      C2182   1.399       .  A
C2181      F2188   1.357       .  S
C2182      C2183   1.405       .  A
C2182      H2187   1.083       .  S
C2183      C2184   1.409       .  A
C2184      F2185   1.358       .  S
C2189      C2190   1.405       .  A
C2189      C2194   1.398       .  A
C2189      H2196   1.083       .  S
C2190      C2191   1.410       .  A
C2191      C2192   1.398       .  A
C2191      F2198   1.357       .  S
C2192      C2193   1.404       .  A
C2192      H2197   1.083       .  S
C2193      C2194   1.410       .  A
C2194      F2195   1.357       .  S
C2199      C3016   1.404       .  A
C2199      C2204   1.398   1_554  A
C2199      H2206   1.083       .  S
C2200      C3015   1.404       .  A
C2200      C2201   1.408       .  A
C2201      C2202   1.398   1_554  A
C2201      F2208   1.358   1_545  S
C2202      C2203   1.403       .  A
C2202      H2207   1.083   1_545  S
C2203      C3020   1.407       .  A
C2204      C3019   1.407       .  A
C2204      F2205   1.358       .  S
C2209      C2214   1.396   1_554  A
C2209      H2216   1.083       .  S
C2210      C2211   1.409       .  A
C2211      C2212   1.399   1_554  A
C2211      F2218   1.357       .  S
C2212      C2213   1.403       .  A
C2212      H2217   1.083       .  S
C2214      F2215   1.358       .  S
C2219      C2224   1.398       .  A
C2219      H2226   1.083       .  S
C2220      C2221   1.409       .  A
C2221      C2222   1.398       .  A
C2221      F2228   1.357       .  S
C2222      C2223   1.405       .  A
C2222      H2227   1.083       .  S
C2224      F2225   1.357       .  S
C2229      C2234   1.398       .  A
C2229      H2236   1.083       .  S
C2230      C2231   1.410       .  A
C2231      C2232   1.398       .  A
C2231      F2238   1.357       .  S
C2232      C2233   1.405       .  A
C2232      H2237   1.083       .  S
C2234      F2235   1.357       .  S
C2239      C2244   1.398   1_556  A
C2239      H2246   1.083       .  S
C2240      C2241   1.407       .  A
C2241      C2242   1.397   1_556  A
C2241      F2248   1.357       .  S
C2242      C2243   1.404       .  A
C2242      H2247   1.083       .  S
C2244      F2245   1.358       .  S
C2249      C2250   1.406       .  A
C2249      C2254   1.398       .  A
C2249      H2256   1.083       .  S
C2250      C2251   1.409       .  A
C2251      C2252   1.397       .  A
C2251      F2258   1.357       .  S
C2252      C2253   1.405       .  A
C2252      H2257   1.083       .  S
C2253      C2254   1.409       .  A
C2254      F2255   1.357       .  S
C2259      C3076   1.405       .  A
C2259      C2264   1.397       .  A
C2259      H2266   1.083       .  S
C2260      C3075   1.405   1_545  A
C2260      C2261   1.408       .  A
C2261      C2262   1.398       .  A
C2261      F2268   1.357       .  S
C2262      C2263   1.405       .  A
C2262      H2267   1.083       .  S
C2263      C3080   1.408   1_545  A
C2264      C3079   1.408       .  A
C2264      F2265   1.357       .  S
C2269      C2270   1.405       .  A
C2269      C2274   1.398       .  A
C2269      H2276   1.083       .  S
C2271      C2272   1.397       .  A
C2271      F2278   1.357       .  S
C2272      H2277   1.083       .  S
C2273      C2274   1.409       .  A
C2274      F2275   1.358       .  S
C2279      C2280   1.405       .  A
C2279      C2284   1.398       .  A
C2279      H2286   1.083       .  S
C2280      C2281   1.409       .  A
C2281      C2282   1.397       .  A
C2281      F2288   1.357       .  S
C2282      C2283   1.404       .  A
C2282      H2287   1.083       .  S
C2283      C2284   1.409       .  A
C2284      F2285   1.358       .  S
C2289      C2290   1.406       .  A
C2289      C2294   1.397       .  A
C2289      H2296   1.083       .  S
C2290      C2291   1.408       .  A
C2291      C2292   1.397       .  A
C2291      F2298   1.357       .  S
C2292      C2293   1.405       .  A
C2292      H2297   1.083       .  S
C2293      C2294   1.408       .  A
C2294      F2295   1.358       .  S
C2299      C2304   1.397       .  A
C2299      H2306   1.083       .  S
C2300      C3117   1.409   1_545  A
C2301      C3116   1.409       .  A
C2301      C2302   1.397       .  A
C2301      F2308   1.357       .  S
C2302      C3119   1.405       .  A
C2302      H2307   1.083       .  S
C2303      C3118   1.405   1_545  A
C2304      F2305   1.357       .  S
C2309      C3126   1.405       .  A
C2309      C2314   1.397       .  A
C2309      H2316   1.083       .  S
C2310      C3125   1.405   1_545  A
C2310      C2311   1.408       .  A
C2311      C2312   1.397       .  A
C2311      F2318   1.357       .  S
C2312      C2313   1.405       .  A
C2312      H2317   1.083       .  S
C2313      C3130   1.409   1_545  A
C2314      C3129   1.408       .  A
C2314      F2315   1.357       .  S
C2319      C3136   1.406       .  A
C2319      C2324   1.396       .  A
C2319      H2326   1.083       .  S
C2320      C3135   1.406   1_545  A
C2320      C2321   1.408       .  A
C2321      C2322   1.397       .  A
C2321      F2328   1.357       .  S
C2322      C2323   1.406       .  A
C2322      H2327   1.083       .  S
C2323      C3140   1.408   1_545  A
C2324      C3139   1.408       .  A
C2324      F2325   1.357       .  S
C2329      C2330   1.405       .  A
C2329      C2334   1.398       .  A
C2329      H2336   1.083       .  S
C2330      C2331   1.408       .  A
C2331      C2332   1.397       .  A
C2331      F2338   1.357       .  S
C2332      C2333   1.404       .  A
C2332      H2337   1.083       .  S
C2333      C2334   1.409       .  A
C2334      F2335   1.358       .  S
C2339      C2340   1.405       .  A
C2339      C2344   1.398       .  A
C2339      H2346   1.083       .  S
C2340      C2341   1.407       .  A
C2341      C2342   1.396       .  A
C2341      F2348   1.357       .  S
C2342      C2343   1.403       .  A
C2342      H2347   1.083       .  S
C2343      C2344   1.406       .  A
C2344      F2345   1.358       .  S
C2349      C2350   1.404       .  A
C2349      C2354   1.398       .  A
C2349      H2356   1.083       .  S
C2350      C2351   1.410       .  A
C2351      C2352   1.398       .  A
C2351      F2358   1.357       .  S
C2352      C2353   1.404       .  A
C2352      H2357   1.083       .  S
C2353      C2354   1.410       .  A
C2354      F2355   1.357       .  S
C2359      C2360   1.406       .  A
C2359      C2364   1.398       .  A
C2359      H2366   1.083       .  S
C2360      C2361   1.408       .  A
C2361      C2362   1.398       .  A
C2361      F2368   1.357       .  S
C2362      C2363   1.406       .  A
C2362      H2367   1.083       .  S
C2363      C2364   1.408       .  A
C2364      F2365   1.358       .  S
C2369      C2370   1.405       .  A
C2369      C2374   1.397       .  A
C2369      H2376   1.083       .  S
C2370      C3187   1.409       .  A
C2371      C3186   1.409       .  A
C2371      C2372   1.398       .  A
C2371      F2378   1.358       .  S
C2372      C3189   1.405       .  A
C2372      H2377   1.083       .  S
C2373      C2600   1.480       .  S
C2373      C3188   1.405       .  A
C2373      C2374   1.408       .  A
C2374      F2375   1.357       .  S
C2379      C2380   1.403       .  A
C2379      C2384   1.398       .  A
C2379      H2386   1.083       .  S
C2380      C3197   1.407       .  A
C2381      C3196   1.408       .  A
C2381      C2382   1.397       .  A
C2381      F2388   1.358       .  S
C2382      C2383   1.404       .  A
C2382      H2387   1.083       .  S
C2383      C3200   1.407   1_545  A
C2384      C3199   1.408       .  A
C2384      F2385   1.357       .  S
C2389      C2390   1.405       .  A
C2389      C2394   1.398       .  A
C2389      H2396   1.083       .  S
C2391      C2392   1.397       .  A
C2391      F2398   1.357       .  S
C2392      H2397   1.083       .  S
C2393      C2394   1.409       .  A
C2394      F2395   1.357       .  S
C2399      C2404   1.397       .  A
C2399      H2406   1.083       .  S
C2400      C2401   1.406       .  A
C2401      C2402   1.399       .  A
C2401      F2408   1.358       .  S
C2402      C2403   1.405       .  A
C2402      H2407   1.083       .  S
C2404      F2405   1.358       .  S
C2409      C2410   1.405   1_655  A
C2409      C2414   1.397       .  A
C2409      H2416   1.083       .  S
C2411      C2412   1.399       .  A
C2411      F2418   1.357       .  S
C2412      C2413   1.406       .  A
C2412      H2417   1.084       .  S
C2414      F2415   1.357       .  S
C2419      C2424   1.399       .  A
C2419      H2426   1.084       .  S
C2420      C2421   1.408       .  A
C2421      C2422   1.397       .  A
C2421      F2428   1.357       .  S
C2422      H2427   1.084       .  S
C2423      C2424   1.408       .  A
C2424      F2425   1.357       .  S
C2429      C2430   1.405       .  A
C2429      C2434   1.398       .  A
C2429      H2436   1.083       .  S
C2431      C2432   1.397       .  A
C2431      F2438   1.357       .  S
C2432      H2437   1.083       .  S
C2433      C2434   1.409       .  A
C2434      F2435   1.357       .  S
C2439      C2444   1.397       .  A
C2439      H2446   1.083       .  S
C2440      C2441   1.407       .  A
C2441      C2442   1.398       .  A
C2441      F2448   1.358       .  S
C2442      C2443   1.404       .  A
C2442      H2447   1.083       .  S
C2444      F2445   1.358       .  S
O2450      V2457   1.896       .  S
O2451      V2457   1.900       .  S
O2451      C2461   1.265       .  A
O2452      V2457   1.900       .  S
O2452      C2462   1.265       .  A
O2453      V2458   1.896       .  S
O2454      V2458   1.896       .  S
O2455      C2460   1.265       .  A
O2456      V2458   1.899       .  S
O2456      C2459   1.265   1_655  A
C2459      C3226   1.483       .  S
C2460      C3239   1.483       .  S
C2461      C3259   1.476       .  S
C2462      C3246   1.481       .  S
O2463      V2471   1.901       .  S
O2463      C2473   1.265       .  A
O2464      V2471   1.900       .  S
O2464      C2474   1.265       .  A
O2465      V2471   1.899       .  S
O2465      C2475   1.264       .  A
O2466      V2471   1.899       .  S
O2466      C2476   1.265       .  A
O2467      V2472   1.898       .  S
O2468      V2472   1.897       .  S
O2469      V2472   1.899       .  S
O2470      V2472   1.898       .  S
C2473      C3236   1.482       .  S
C2474      C3229   1.483       .  S
C2475      C3216   1.474       .  S
C2476      C3206   1.482       .  S
O2477      C2487   1.267       .  A
O2478      V2485   1.902       .  S
O2478      C2488   1.266       .  A
O2479      V2485   1.897       .  S
O2480      V2485   1.896       .  S
O2481      V2486   1.901       .  S
O2481      C2490   1.266   1_565  A
O2482      V2486   1.900       .  S
O2482      C2489   1.265   1_565  A
O2483      C2488   1.264       .  A
O2484      V2486   1.895       .  S
O2484      C2487   1.263       .  A
C2487      C3166   1.484       .  S
C2488      C3176   1.482       .  S
C2489      C3196   1.476       .  S
C2490      C3186   1.481       .  S
O2491      V2499   1.897       .  S
O2491      C2501   1.264       .  A
O2492      V2499   1.895       .  S
O2492      C2502   1.263       .  A
O2493      V2499   1.896       .  S
O2493      C2503   1.264       .  A
O2494      V2499   1.896       .  S
O2494      C2504   1.264       .  A
O2495      V2500   1.900       .  S
O2495      C2504   1.265       .  A
O2496      V2500   1.899       .  S
O2496      C2503   1.264       .  A
O2497      V2500   1.904       .  S
O2497      C2502   1.267       .  A
O2498      V2500   1.901       .  S
O2498      C2501   1.265       .  A
V2499      V2500   2.086       .  T
C2501      C3179   1.481       .  S
C2502      C3169   1.484       .  S
C2503      C3156   1.476       .  S
C2504      C3146   1.478       .  S
O2505      V2513   1.898       .  S
O2506      V2513   1.898       .  S
O2508      V2513   1.898       .  S
O2509      C2518   1.265       .  A
O2510      V2514   1.895       .  S
O2510      C2517   1.264       .  A
O2511      V2514   1.899       .  S
O2511      C2516   1.264       .  A
O2512      V2514   1.898       .  S
O2512      C2515   1.264       .  A
C2515      C3119   1.481       .  S
C2516      C3256   1.475       .  S
C2517      C3139   1.480       .  S
C2518      C3126   1.481       .  S
O2519      V2527   1.899       .  S
O2519      C2529   1.265       .  A
O2520      V2527   1.899       .  S
O2520      C2530   1.265       .  A
O2521      C2531   1.266       .  A
O2522      V2527   1.900       .  S
O2522      C2532   1.265       .  A
O2523      C2532   1.264       .  A
O2524      V2528   1.895       .  S
O2524      C2531   1.264       .  A
O2525      V2528   1.898       .  S
O2526      V2528   1.898       .  S
C2529      C3086   1.480       .  S
C2530      C3219   1.478       .  S
C2531      C3096   1.482       .  S
C2532      C3106   1.480       .  S
O2533      V2541   1.899       .  S
O2534      V2541   1.895       .  S
O2535      V2541   1.897       .  S
O2536      V2541   1.898       .  S
O2537      V2542   1.899       .  S
O2537      C2546   1.264       .  A
O2538      V2542   1.899       .  S
O2538      C2545   1.265       .  A
O2539      V2542   1.899       .  S
O2539      C2544   1.265       .  A
O2540      V2542   1.897       .  S
O2540      C2543   1.265       .  A
C2543      C3129   1.481       .  S
C2544      C3136   1.480       .  S
C2545      C3199   1.476       .  S
C2546      C3076   1.481       .  S
O2547      V2555   1.901       .  S
O2547      C2557   1.266       .  A
O2548      V2555   1.898       .  S
O2548      C2558   1.264       .  A
O2549      V2555   1.899       .  S
O2549      C2559   1.264       .  A
O2550      V2555   1.900       .  S
O2550      C2560   1.265       .  A
O2551      V2556   1.896       .  S
O2551      C2560   1.264       .  A
O2552      V2556   1.896       .  S
O2552      C2559   1.264       .  A
O2553      V2556   1.898       .  S
O2553      C2558   1.265       .  A
O2554      V2556   1.896       .  S
O2554      C2557   1.264       .  A
V2555      V2556   2.086       .  T
C2557      C3099   1.482       .  S
C2558      C3109   1.479       .  S
C2559      C3159   1.472       .  S
C2560      C3066   1.482       .  S
O2561      V2569   1.901       .  S
O2561      C2571   1.266       .  A
O2562      C2572   1.265       .  A
O2563      V2569   1.895       .  S
O2563      C2573   1.263       .  A
O2564      V2569   1.896       .  S
O2564      C2574   1.264       .  A
O2565      V2570   1.899       .  S
O2566      V2570   1.900       .  S
O2567      V2570   1.898       .  S
C2573      C3059   1.473       .  S
C2574      C3249   1.481       .  S
O2575      V2583   1.899       .  S
O2576      V2583   1.897       .  S
O2577      V2583   1.899       .  S
O2578      V2583   1.899       .  S
O2578      C2588   1.265       .  A
O2579      V2584   1.898       .  S
O2580      V2584   1.899       .  S
O2580      C2587   1.264       .  A
O2581      V2584   1.900       .  S
O2581      C2586   1.265       .  A
O2582      V2584   1.899       .  S
O2582      C2585   1.265       .  A
C2585      C3039   1.483       .  S
C2586      C3049   1.483       .  S
C2588      C3209   1.482       .  S
O2589      V2597   1.896       .  S
O2590      V2597   1.897       .  S
O2591      C2601   1.264       .  A
O2592      V2597   1.899       .  S
O2592      C2602   1.265       .  A
O2593      C2602   1.265       .  A
O2594      V2598   1.902       .  S
O2594      C2601   1.266       .  A
O2595      V2598   1.900       .  S
O2595      C2600   1.265       .  A
O2596      V2598   1.901       .  S
O2596      C2599   1.265       .  A
C2599      C3016   1.477       .  S
C2601      C3006   1.483       .  S
C2602      C2996   1.483       .  S
O2603      V2611   1.898       .  S
O2603      C2613   1.264       .  A
O2604      V2611   1.896       .  S
O2604      C2614   1.263       .  A
O2605      V2611   1.901       .  S
O2605      C2615   1.265       .  A
O2606      V2611   1.899       .  S
O2606      C2616   1.265       .  A
O2607      V2612   1.896       .  S
O2607      C2616   1.264       .  A
O2608      V2612   1.895       .  S
O2608      C2615   1.263       .  A
O2609      V2612   1.902       .  S
O2609      C2614   1.266       .  A
O2610      V2612   1.902       .  S
O2610      C2613   1.266       .  A
V2611      V2612   2.085       .  T
C2613      C2999   1.482       .  S
C2614      C3009   1.483       .  S
C2615      C2986   1.474       .  S
C2616      C3149   1.479       .  S
O2617      C2627   1.266       .  A
O2618      C2628   1.265       .  A
O2619      V2625   1.897       .  S
O2620      V2625   1.898       .  S
O2621      V2626   1.899       .  S
O2622      V2626   1.899       .  S
O2623      C2628   1.264       .  A
O2624      C2627   1.264       .  A
C2627      C2969   1.483       .  S
C2628      C2956   1.482       .  S
C2629      C3056   1.477       .  S
C2630      C2979   1.482       .  S
O2631      V2639   1.897       .  S
O2631      C2641   1.264       .  A
O2632      C2642   1.265       .  A
O2633      V2639   1.899       .  S
O2633      C2643   1.265       .  A
O2634      V2639   1.898       .  S
O2634      C2644   1.263       .  A
O2635      V2640   1.900       .  S
O2636      V2640   1.899       .  S
O2637      V2640   1.897       .  S
O2637      C2642   1.264       .  A
O2638      C2641   1.266       .  A
C2641      C2936   1.483       .  S
C2642      C2929   1.482       .  S
C2643      C2946   1.482       .  S
C2644      C3029   1.469       .  S
O2645      C2655   1.265       .  A
O2646      V2653   1.902       .  S
O2646      C2656   1.266       .  A
O2647      V2653   1.897       .  S
O2648      V2653   1.896       .  S
O2649      V2654   1.901       .  S
O2649      C2658   1.265       .  A
O2650      V2654   1.900       .  S
O2650      C2657   1.265       .  A
O2651      C2656   1.264       .  A
O2652      V2654   1.900       .  S
O2652      C2655   1.265       .  A
C2655      C2926   1.482       .  S
C2656      C2939   1.483       .  S
C2657      C2916   1.481       .  S
C2658      C3019   1.475       .  S
O2659      V2667   1.899       .  S
O2659      C2669   1.264       .  A
O2660      V2667   1.897       .  S
O2660      C2670   1.264       .  A
O2661      V2667   1.899       .  S
O2661      C2671   1.265       .  A
O2662      V2667   1.900       .  S
O2662      C2672   1.265       .  A
O2663      V2668   1.898       .  S
O2663      C2672   1.265       .  A
O2664      V2668   1.898       .  S
O2664      C2671   1.264       .  A
O2665      V2668   1.902       .  S
O2665      C2670   1.266       .  A
O2666      V2668   1.898       .  S
O2666      C2669   1.265       .  A
V2667      V2668   2.085       .  T
C2669      C2959   1.482       .  S
C2670      C2966   1.483       .  S
C2671      C2989   1.478       .  S
C2672      C2906   1.483       .  S
O2673      V2681   1.899       .  S
O2673      C2683   1.265       .  A
O2674      V2681   1.899       .  S
O2674      C2684   1.265       .  A
O2675      V2681   1.896       .  S
O2675      C2685   1.264       .  A
O2676      C2686   1.263       .  A
O2677      V2682   1.899       .  S
O2679      V2682   1.898       .  S
O2680      V2682   1.897       .  S
C2683      C3116   1.482       .  S
C2684      C2899   1.478       .  S
C2685      C2886   1.481       .  S
C2686      C2879   1.481       .  S
O2687      V2695   1.897       .  S
O2687      C2697   1.264       .  A
O2688      C2698   1.263       .  A
O2689      V2695   1.899       .  S
O2690      V2695   1.899       .  S
O2691      V2696   1.898       .  S
O2691      C2700   1.264       .  A
O2692      V2696   1.897       .  S
O2692      C2699   1.265       .  A
O2693      V2696   1.900       .  S
O2693      C2698   1.265       .  A
O2694      C2697   1.265       .  A
C2697      C2846   1.481       .  S
C2698      C2856   1.481       .  S
C2699      C2866   1.481       .  S
C2700      C3089   1.480       .  S
O2701      V2709   1.896       .  S
O2702      V2709   1.895       .  S
O2703      V2709   1.898       .  S
O2704      V2709   1.898       .  S
O2705      V2710   1.898       .  S
O2705      C2714   1.265       .  A
O2706      V2710   1.898       .  S
O2706      C2713   1.264       .  A
O2707      V2710   1.899       .  S
O2707      C2712   1.265       .  A
O2708      V2710   1.898       .  S
O2708      C2711   1.265       .  A
C2711      C2889   1.481       .  S
C2712      C2876   1.481       .  S
C2713      C2839   1.478       .  S
C2714      C3079   1.481       .  S
O2715      V2723   1.898       .  S
O2715      C2725   1.265       .  A
O2716      V2723   1.899       .  S
O2716      C2726   1.265       .  A
O2717      V2723   1.896       .  S
O2717      C2727   1.264       .  A
O2718      V2723   1.894       .  S
O2718      C2728   1.263       .  A
O2719      V2724   1.900       .  S
O2719      C2728   1.266       .  A
O2720      V2724   1.898       .  S
O2720      C2727   1.265       .  A
O2721      V2724   1.899       .  S
O2721      C2726   1.264       .  A
O2722      V2724   1.899       .  S
O2722      C2725   1.264       .  A
V2723      V2724   2.085       .  T
C2725      C3069   1.482       .  S
C2726      C2826   1.477       .  S
C2727      C2849   1.481       .  S
C2728      C2859   1.481       .  S
O2729      C2739   1.264       .  A
O2730      C2740   1.265       .  A
O2731      V2737   1.897       .  S
O2732      V2737   1.898       .  S
O2733      V2738   1.899       .  S
O2734      V2738   1.900       .  S
O2735      C2740   1.265       .  A
O2736      C2739   1.266       .  A
C2739      C2806   1.483       .  S
C2740      C2816   1.483       .  S
C2741      C2976   1.482       .  S
C2742      C2896   1.474       .  S
O2743      V2751   1.898       .  S
O2743      C2753   1.265       .  A
O2744      C2754   1.263       .  A
O2745      V2751   1.897       .  S
O2746      V2751   1.898       .  S
O2747      V2752   1.899       .  S
O2747      C2756   1.264       .  A
O2748      V2752   1.900       .  S
O2748      C2755   1.264       .  A
O2749      V2752   1.904       .  S
O2749      C2754   1.267       .  A
O2750      C2753   1.265       .  A
C2753      C2786   1.483       .  S
C2754      C2796   1.483       .  S
C2755      C2869   1.469       .  S
C2756      C2949   1.482       .  S
O2757      C2767   1.267       .  A
O2758      V2765   1.902       .  S
O2758      C2768   1.266       .  A
O2759      V2765   1.895       .  S
O2760      V2765   1.896       .  S
O2761      V2766   1.901       .  S
O2761      C2770   1.265       .  A
O2762      V2766   1.902       .  S
O2762      C2769   1.265       .  A
O2763      C2768   1.264       .  A
O2764      V2766   1.895       .  S
O2764      C2767   1.263       .  A
C2767      C2799   1.483       .  S
C2768      C2789   1.482       .  S
C2769      C2836   1.473       .  S
C2770      C2919   1.482       .  S
O2771      V2779   1.901       .  S
O2771      C2781   1.265       .  A
O2772      V2779   1.900       .  S
O2772      C2782   1.265       .  A
O2773      V2779   1.898       .  S
O2773      C2783   1.265       .  A
O2774      V2779   1.897       .  S
O2774      C2784   1.264       .  A
O2775      V2780   1.901       .  S
O2775      C2784   1.266       .  A
O2776      V2780   1.900       .  S
O2776      C2783   1.265       .  A
O2777      V2780   1.898       .  S
O2777      C2782   1.264       .  A
O2778      V2780   1.897       .  S
O2778      C2781   1.264       .  A
V2779      V2780   2.085       .  T
C2781      C2909   1.483       .  S
C2782      C2829   1.476       .  S
C2783      C2819   1.483       .  S
C2784      C2809   1.483       .  S
C2785      C2786   1.406       .  A
C2785      C2790   1.398       .  A
C2785      H2792   1.083       .  S
C2786      C2787   1.408       .  A
C2787      C2788   1.398       .  A
C2787      F2794   1.357       .  S
C2788      C2789   1.406       .  A
C2788      H2793   1.083       .  S
C2789      C2790   1.408       .  A
C2790      F2791   1.357       .  S
C2795      C2796   1.404       .  A
C2795      C2800   1.398       .  A
C2795      H2802   1.083       .  S
C2796      C2797   1.410       .  A
C2797      C2798   1.398       .  A
C2797      F2804   1.357       .  S
C2798      C2799   1.404       .  A
C2798      H2803   1.083       .  S
C2799      C2800   1.410       .  A
C2800      F2801   1.357       .  S
C2805      C2806   1.406       .  A
C2805      C2810   1.397       .  A
C2805      H2812   1.083       .  S
C2806      C2807   1.408       .  A
C2807      C2808   1.399       .  A
C2807      F2814   1.357       .  S
C2808      C2809   1.407       .  A
C2808      H2813   1.084       .  S
C2809      C2810   1.408       .  A
C2810      F2811   1.357       .  S
C2815      C2816   1.406       .  A
C2815      C2820   1.399       .  A
C2815      H2822   1.083       .  S
C2816      C2817   1.408       .  A
C2817      C2818   1.397       .  A
C2817      F2824   1.357       .  S
C2818      C2819   1.405       .  A
C2818      H2823   1.083       .  S
C2819      C2820   1.409       .  A
C2820      F2821   1.357       .  S
C2825      C2826   1.405       .  A
C2825      C2830   1.398       .  A
C2825      H2832   1.083       .  S
C2826      C2827   1.407       .  A
C2827      C2828   1.398       .  A
C2827      F2834   1.358       .  S
C2828      C2829   1.404       .  A
C2828      H2833   1.083       .  S
C2829      C2830   1.406       .  A
C2830      F2831   1.357       .  S
C2835      C2840   1.397       .  A
C2835      H2842   1.083       .  S
C2836      C2837   1.405       .  A
C2837      C2838   1.398       .  A
C2837      F2844   1.357       .  S
C2838      H2843   1.083       .  S
C2839      C2840   1.408       .  A
C2840      F2841   1.358       .  S
C2845      C2846   1.405       .  A
C2845      C2850   1.397       .  A
C2845      H2852   1.083       .  S
C2846      C2847   1.409       .  A
C2847      C2848   1.397       .  A
C2847      F2854   1.357       .  S
C2848      C2849   1.405       .  A
C2848      H2853   1.083       .  S
C2849      C2850   1.409       .  A
C2850      F2851   1.357       .  S
C2855      C2856   1.405       .  A
C2855      C2860   1.397       .  A
C2855      H2862   1.083       .  S
C2856      C2857   1.409       .  A
C2857      C2858   1.397       .  A
C2857      F2864   1.357       .  S
C2858      C2859   1.404       .  A
C2858      H2863   1.083       .  S
C2859      C2860   1.409       .  A
C2860      F2861   1.357       .  S
C2865      C2870   1.397       .  A
C2865      H2872   1.083       .  S
C2866      C2867   1.410       .  A
C2867      C2868   1.399       .  A
C2867      F2874   1.357       .  S
C2868      C2869   1.402       .  A
C2868      H2873   1.083       .  S
C2870      F2871   1.358       .  S
C2875      C2876   1.405       .  A
C2875      C2880   1.397       .  A
C2875      H2882   1.083       .  S
C2877      C2878   1.396       .  A
C2877      F2884   1.357       .  S
C2878      H2883   1.083       .  S
C2879      C2880   1.409       .  A
C2880      F2881   1.357       .  S
C2885      C2890   1.397       .  A
C2885      H2892   1.083       .  S
C2886      C2887   1.409       .  A
C2887      C2888   1.397       .  A
C2887      F2894   1.357       .  S
C2888      C2889   1.405       .  A
C2888      H2893   1.083       .  S
C2890      F2891   1.357       .  S
C2895      C2900   1.398       .  A
C2895      H2902   1.083       .  S
C2897      C2898   1.398       .  A
C2897      F2904   1.358       .  S
C2898      H2903   1.083       .  S
C2900      F2901   1.357       .  S
C2905      C2906   1.405       .  A
C2905      C2910   1.397       .  A
C2905      H2912   1.083       .  S
C2906      C2907   1.409       .  A
C2907      C2908   1.398       .  A
C2907      F2914   1.357       .  S
C2908      C2909   1.406       .  A
C2908      H2913   1.083       .  S
C2909      C2910   1.409       .  A
C2910      F2911   1.357       .  S
C2915      C2916   1.406       .  A
C2915      C2920   1.398       .  A
C2915      H2922   1.083       .  S
C2917      C2918   1.397       .  A
C2917      F2924   1.357       .  S
C2918      C2919   1.406   1_545  A
C2918      H2923   1.085       .  S
C2920      F2921   1.357       .  S
C2925      C2926   1.406       .  A
C2925      C2930   1.397       .  A
C2925      H2932   1.083       .  S
C2926      C2927   1.408       .  A
C2927      C2928   1.398       .  A
C2927      F2934   1.357       .  S
C2928      C2929   1.406       .  A
C2928      H2933   1.083       .  S
C2929      C2930   1.408       .  A
C2930      F2931   1.357       .  S
C2935      C2936   1.405       .  A
C2935      C2940   1.398       .  A
C2935      H2942   1.084       .  S
C2936      C2937   1.409       .  A
C2937      C2938   1.398       .  A
C2937      F2944   1.357       .  S
C2938      C2939   1.405       .  A
C2938      H2943   1.083       .  S
C2939      C2940   1.410       .  A
C2940      F2941   1.357       .  S
C2945      C2946   1.405       .  A
C2945      C2950   1.398       .  A
C2945      H2952   1.083       .  S
C2947      C2948   1.397       .  A
C2947      F2954   1.357       .  S
C2948      H2953   1.083       .  S
C2949      C2950   1.409       .  A
C2950      F2951   1.357       .  S
C2955      C2956   1.406       .  A
C2955      C2960   1.398       .  A
C2955      H2962   1.083       .  S
C2956      C2957   1.409       .  A
C2957      C2958   1.397       .  A
C2957      F2964   1.357       .  S
C2958      C2959   1.405       .  A
C2958      H2963   1.083       .  S
C2959      C2960   1.409       .  A
C2960      F2961   1.357       .  S
C2965      C2966   1.405       .  A
C2965      C2970   1.399       .  A
C2965      H2972   1.083       .  S
C2966      C2967   1.409       .  A
C2967      C2968   1.397       .  A
C2967      F2974   1.357       .  S
C2968      C2969   1.405       .  A
C2968      H2973   1.083       .  S
C2969      C2970   1.410       .  A
C2970      F2971   1.357       .  S
C2975      C2980   1.397       .  A
C2975      H2982   1.083       .  S
C2976      C2977   1.409       .  A
C2977      C2978   1.398       .  A
C2977      F2984   1.357       .  S
C2978      C2979   1.406       .  A
C2978      H2983   1.083       .  S
C2980      F2981   1.357       .  S
C2985      C2986   1.403       .  A
C2985      C2990   1.398   1_554  A
C2985      H2992   1.083       .  S
C2986      C2987   1.406       .  A
C2987      C2988   1.397   1_554  A
C2987      F2994   1.358       .  S
C2988      C2989   1.404       .  A
C2988      H2993   1.083       .  S
C2989      C2990   1.409       .  A
C2990      F2991   1.357       .  S
C2995      C2996   1.405       .  A
C2995      C3000   1.398       .  A
C2995      H3002   1.083       .  S
C2996      C2997   1.409       .  A
C2997      C2998   1.399       .  A
C2997      F3004   1.357       .  S
C2998      C2999   1.405       .  A
C2998      H3003   1.083       .  S
C2999      C3000   1.409       .  A
C3000      F3001   1.358       .  S
C3005      C3006   1.405       .  A
C3005      C3010   1.398       .  A
C3005      H3012   1.083       .  S
C3006      C3007   1.409       .  A
C3007      C3008   1.397       .  A
C3007      F3014   1.357       .  S
C3008      C3009   1.405       .  A
C3008      H3013   1.083       .  S
C3009      C3010   1.410       .  A
C3010      F3011   1.357       .  S
C3015      C3020   1.398   1_554  A
C3015      H3022   1.083       .  S
C3016      C3017   1.408       .  A
C3017      C3018   1.398   1_554  A
C3017      F3024   1.358       .  S
C3018      C3019   1.403       .  A
C3018      H3023   1.083       .  S
C3020      F3021   1.358       .  S
C3025      C3030   1.397   1_554  A
C3025      H3032   1.083       .  S
C3026      C3027   1.411       .  A
C3027      C3028   1.399   1_554  A
C3027      F3034   1.357       .  S
C3028      C3029   1.401       .  A
C3028      H3033   1.083       .  S
C3030      F3031   1.358       .  S
C3035      C3040   1.398       .  A
C3035      H3042   1.083       .  S
C3036      C3037   1.409       .  A
C3037      C3038   1.397       .  A
C3037      F3044   1.357       .  S
C3038      C3039   1.405       .  A
C3038      H3043   1.083       .  S
C3040      F3041   1.357       .  S
C3045      C3050   1.398       .  A
C3045      H3052   1.083       .  S
C3046      C3047   1.409       .  A
C3047      C3048   1.398       .  A
C3047      F3054   1.357       .  S
C3048      C3049   1.405       .  A
C3048      H3053   1.084       .  S
C3050      F3051   1.357       .  S
C3055      C3060   1.398   1_556  A
C3055      H3062   1.083       .  S
C3056      C3057   1.407       .  A
C3057      C3058   1.397   1_556  A
C3057      F3064   1.357       .  S
C3058      C3059   1.404       .  A
C3058      H3063   1.083       .  S
C3060      F3061   1.358       .  S
C3065      C3066   1.406       .  A
C3065      C3070   1.398       .  A
C3065      H3072   1.083       .  S
C3066      C3067   1.409       .  A
C3067      C3068   1.397       .  A
C3067      F3074   1.357       .  S
C3068      C3069   1.405       .  A
C3068      H3073   1.083       .  S
C3069      C3070   1.409       .  A
C3070      F3071   1.357       .  S
C3075      C3080   1.397       .  A
C3075      H3082   1.083       .  S
C3076      C3077   1.408       .  A
C3077      C3078   1.398       .  A
C3077      F3084   1.357       .  S
C3078      C3079   1.406       .  A
C3078      H3083   1.083       .  S
C3080      F3081   1.357       .  S
C3085      C3086   1.405       .  A
C3085      C3090   1.398       .  A
C3085      H3092   1.083       .  S
C3087      C3088   1.397       .  A
C3087      F3094   1.357       .  S
C3088      H3093   1.083       .  S
C3089      C3090   1.408       .  A
C3090      F3091   1.358       .  S
C3095      C3096   1.405       .  A
C3095      C3100   1.398       .  A
C3095      H3102   1.083       .  S
C3096      C3097   1.409       .  A
C3097      C3098   1.397       .  A
C3097      F3104   1.357       .  S
C3098      C3099   1.404       .  A
C3098      H3103   1.083       .  S
C3099      C3100   1.409       .  A
C3100      F3101   1.357       .  S
C3105      C3106   1.405       .  A
C3105      C3110   1.397       .  A
C3105      H3112   1.083       .  S
C3106      C3107   1.408       .  A
C3107      C3108   1.397       .  A
C3107      F3114   1.357       .  S
C3108      C3109   1.405       .  A
C3108      H3113   1.083       .  S
C3109      C3110   1.407       .  A
C3110      F3111   1.358       .  S
C3115      C3120   1.397       .  A
C3115      H3122   1.083       .  S
C3117      C3118   1.397       .  A
C3117      F3124   1.357       .  S
C3118      H3123   1.083       .  S
C3120      F3121   1.357       .  S
C3125      C3130   1.398       .  A
C3125      H3132   1.083       .  S
C3126      C3127   1.408       .  A
C3127      C3128   1.397       .  A
C3127      F3134   1.357       .  S
C3128      C3129   1.405       .  A
C3128      H3133   1.083       .  S
C3130      F3131   1.357       .  S
C3135      C3140   1.396       .  A
C3135      H3142   1.083       .  S
C3136      C3137   1.408       .  A
C3137      C3138   1.397       .  A
C3137      F3144   1.357       .  S
C3138      C3139   1.406       .  A
C3138      H3143   1.083       .  S
C3140      F3141   1.357       .  S
C3145      C3146   1.405       .  A
C3145      C3150   1.398       .  A
C3145      H3152   1.083       .  S
C3146      C3147   1.408       .  A
C3147      C3148   1.397       .  A
C3147      F3154   1.357       .  S
C3148      C3149   1.404       .  A
C3148      H3153   1.083       .  S
C3149      C3150   1.409       .  A
C3150      F3151   1.358       .  S
C3155      C3156   1.405       .  A
C3155      C3160   1.399       .  A
C3155      H3162   1.083       .  S
C3156      C3157   1.407       .  A
C3157      C3158   1.396       .  A
C3157      F3164   1.357       .  S
C3158      C3159   1.403       .  A
C3158      H3163   1.083       .  S
C3159      C3160   1.406       .  A
C3160      F3161   1.358       .  S
C3165      C3166   1.405       .  A
C3165      C3170   1.398       .  A
C3165      H3172   1.083       .  S
C3166      C3167   1.410       .  A
C3167      C3168   1.398       .  A
C3167      F3174   1.357       .  S
C3168      C3169   1.405       .  A
C3168      H3173   1.083       .  S
C3169      C3170   1.410       .  A
C3170      F3171   1.357       .  S
C3175      C3176   1.406       .  A
C3175      C3180   1.398       .  A
C3175      H3182   1.083       .  S
C3176      C3177   1.408       .  A
C3177      C3178   1.398       .  A
C3177      F3184   1.357       .  S
C3178      C3179   1.406       .  A
C3178      H3183   1.083       .  S
C3179      C3180   1.408       .  A
C3180      F3181   1.358       .  S
C3185      C3186   1.405   1_565  A
C3185      C3190   1.397       .  A
C3185      H3192   1.083       .  S
C3187      C3188   1.398       .  A
C3187      F3194   1.358       .  S
C3188      H3193   1.083       .  S
C3189      C3190   1.408   1_545  A
C3190      F3191   1.357       .  S
C3195      C3196   1.404   1_565  A
C3195      C3200   1.398       .  A
C3195      H3202   1.083       .  S
C3197      C3198   1.398       .  A
C3197      F3204   1.358       .  S
C3198      C3199   1.404       .  A
C3198      H3203   1.083       .  S
C3200      F3201   1.358       .  S
C3205      C3206   1.406       .  A
C3205      C3210   1.398       .  A
C3205      H3212   1.083       .  S
C3207      C3208   1.397       .  A
C3207      F3214   1.357       .  S
C3208      H3213   1.083       .  S
C3209      C3210   1.409       .  A
C3210      F3211   1.357       .  S
C3215      C3220   1.397       .  A
C3215      H3222   1.083       .  S
C3216      C3217   1.406       .  A
C3217      C3218   1.398       .  A
C3217      F3224   1.358       .  S
C3218      C3219   1.405       .  A
C3218      H3223   1.083       .  S
C3220      F3221   1.357       .  S
C3225      C3226   1.405   1_655  A
C3225      C3230   1.397       .  A
C3225      H3232   1.084       .  S
C3227      C3228   1.399       .  A
C3227      F3234   1.357       .  S
C3228      C3229   1.406       .  A
C3228      H3233   1.084       .  S
C3230      F3231   1.357       .  S
C3235      C3240   1.399       .  A
C3235      H3242   1.084       .  S
C3236      C3237   1.408       .  A
C3237      C3238   1.397       .  A
C3237      F3244   1.357       .  S
C3238      H3243   1.084       .  S
C3239      C3240   1.408       .  A
C3240      F3241   1.357       .  S
C3245      C3246   1.405       .  A
C3245      C3250   1.398       .  A
C3245      H3252   1.083       .  S
C3247      C3248   1.397       .  A
C3247      F3254   1.357       .  S
C3248      H3253   1.083       .  S
C3249      C3250   1.409       .  A
C3250      F3251   1.357       .  S
C3255      C3260   1.397       .  A
C3255      H3262   1.083       .  S
C3256      C3257   1.407       .  A
C3257      C3258   1.398       .  A
C3257      F3264   1.357       .  S
C3258      C3259   1.404       .  A
C3258      H3263   1.083       .  S
C3260      F3261   1.358       .  S
