geometry optimzed in LAMMPS
_audit_creation_date              2020-12-01 
_audit_creation_method            'lammps2cif' 
_symmetry_space_group_name_H-M    'P1' 
_symmetry_Int_Tables_number       1 
_symmetry_cell_setting            triclinic 
loop_ 
_symmetry_equiv_pos_as_xyz 
  x,y,z 
_cell_length_a                    33.16369908 
_cell_length_b                    33.34894809046494 
_cell_length_c                    76.17631442298133 
_cell_angle_alpha                 90.36511373373574 
_cell_angle_beta                  89.96838001306888 
_cell_angle_gamma                 121.27625632109923 
loop_ 
_atom_site_label 
_atom_site_type_symbol 
_atom_site_fract_x 
_atom_site_fract_y 
_atom_site_fract_z 
_atom_site_charge 
O1          O  0.44650156  0.95823402  0.98124832    -0.72700
O2          O  0.49440410  0.05424512  0.01953674    -0.73700
O3          O  0.49383277  0.05759065  0.98201513    -0.62300
O4          O  0.44953574  0.95487663  0.01875526    -0.70700
O5          O  0.51990687  0.96281649  0.01774600    -0.70300
O6          O  0.56167193  0.05959134  0.98084179    -0.61500
O7          O  0.56513068  0.06230200  0.01816626    -0.74000
O8          O  0.51446587  0.96029604  0.98045935    -0.72800
Cu9        Cu  0.46862921  0.00607203  0.00044819     1.04600
Cu10       Cu  0.54269279  0.01146790  0.99928514     1.04300
C11         C  0.47244171  0.94412699  0.97472616     0.93500
C12         C  0.53693433  0.07360245  0.02488095     0.92600
C13         C  0.53482968  0.07359538  0.97531888     0.84800
C14         C  0.47843880  0.94299035  0.02416021     0.91000
N15         N  0.27050672  0.65614078  0.85703557    -0.27100
N16         N  0.23169193  0.64120041  0.86633471    -0.34900
C17         C  0.24336560  0.66424844  0.88185594     0.01300
C18         C  0.29199124  0.69495298  0.88240837     0.07300
C19         C  0.30766388  0.68912126  0.86626223    -0.05800
H20         H  0.21821949  0.65953737  0.89189984     0.08000
H21         H  0.34320613  0.70865158  0.86119915     0.09200
Cu22       Cu  0.16476407  0.59297508  0.85639504     0.44200
Cu23       Cu  0.27147204  0.63229540  0.83194915     0.42000
Cu24       Cu  0.16062519  0.56175707  0.80961945     0.43900
N25         N  0.10268002  0.55251545  0.84196436    -0.34400
N26         N  0.10129023  0.54361196  0.82492814    -0.28700
C27         C  0.05594581  0.51996452  0.81955738    -0.04800
C28         C  0.02742647  0.51299062  0.83389972     0.07400
C29         C  0.05820453  0.53390299  0.84788222     0.01200
H30         H  0.04454874  0.50813147  0.80622494     0.08900
H31         H  0.04902265  0.53650773  0.86129668     0.07900
N32         N  0.22538121  0.57943934  0.79850748    -0.35900
N33         N  0.26580307  0.60486258  0.80697161    -0.28100
C34         C  0.30108629  0.60909961  0.79690595    -0.03300
C35         C  0.28228376  0.58495302  0.78129591     0.05300
C36         C  0.23404820  0.56692998  0.78272761     0.03400
H37         H  0.33782496  0.62784782  0.80080404     0.08500
H38         H  0.20718101  0.54659943  0.77301066     0.07300
N39         N  0.73469507  0.36589425  0.86116519    -0.27100
N40         N  0.77264398  0.37088686  0.86892828    -0.34900
C41         C  0.75902701  0.34397549  0.88342080     0.01300
C42         C  0.71013153  0.32062886  0.88457593     0.07300
C43         C  0.69620110  0.33611608  0.87036796    -0.05800
H44         H  0.78269261  0.34029393  0.89210596     0.08000
H45         H  0.66060972  0.32602615  0.86674749     0.09200
Cu46       Cu  0.83988578  0.41184109  0.85803343     0.44200
Cu47       Cu  0.73562614  0.39495949  0.83739563     0.42000
Cu48       Cu  0.84140549  0.44603672  0.81177087     0.43900
N49         N  0.90089215  0.45037295  0.84294550    -0.34400
N50         N  0.90109887  0.46037073  0.82612327    -0.28700
C51         C  0.94594809  0.48353028  0.82032327    -0.04800
C52         C  0.97545521  0.48907005  0.83416002     0.07400
C53         C  0.94574900  0.46782274  0.84830170     0.01200
H54         H  0.95638843  0.49644534  0.80709879     0.08900
H55         H  0.95593317  0.46468432  0.86147486     0.07900
N56         N  0.77748388  0.43510473  0.80223706    -0.35900
N57         N  0.73935649  0.41757297  0.81212749    -0.28100
C58         C  0.70397494  0.41574348  0.80293312    -0.00900
C59         C  0.72048676  0.43333739  0.78642297     0.05300
C60         C  0.76712670  0.44479178  0.78629691     0.03400
H61         H  0.66855251  0.40176890  0.80784401     0.08500
H62         H  0.79173743  0.45951591  0.77551261     0.07300
O63         O  0.94423850  0.50218318  0.31642690    -0.72700
O64         O  0.04800200  0.54826626  0.35165128    -0.73700
O65         O  0.04515985  0.55484061  0.31450393    -0.62300
O66         O  0.94773518  0.49390612  0.35322028    -0.70700
O67         O  0.95076419  0.42952220  0.34983411    -0.70300
O68         O  0.04391255  0.48805202  0.31108120    -0.61500
O69         O  0.05176717  0.48418355  0.34820369    -0.74000
O70         O  0.94397773  0.43594919  0.31280950    -0.72800
Cu71       Cu  0.99631737  0.52710818  0.33404200     1.04600
Cu72       Cu  0.99767301  0.45714413  0.33037866     1.04300
C73         C  0.92726118  0.46199549  0.30918054     0.93500
C74         C  0.06630617  0.52403613  0.35562157     0.92600
C75         C  0.05965670  0.53047638  0.30671453     0.84800
C76         C  0.93400144  0.45168591  0.35760522     0.91000
N77         N  0.64043145  0.38840980  0.19481253    -0.27100
N78         N  0.63230959  0.41872433  0.20286541    -0.34900
C79         C  0.65618902  0.43141651  0.21821563     0.01300
C80         C  0.67973893  0.40724651  0.21994092     0.07300
C81         C  0.66926651  0.38083300  0.20472169    -0.05800
H82         H  0.65661113  0.45651170  0.22739964     0.08000
H83         H  0.68282569  0.35882140  0.20080715     0.09200
Cu84       Cu  0.58962903  0.44113817  0.19182030     0.44200
Cu85       Cu  0.61414780  0.35998267  0.17035507     0.42000
Cu86       Cu  0.54882122  0.39998994  0.14641129     0.43900
N87         N  0.54764569  0.45847322  0.17705940    -0.34400
N88         N  0.53485872  0.44545151  0.16052783    -0.28700
C89         C  0.51010200  0.46457795  0.15482214    -0.04800
C90         C  0.50638535  0.49012304  0.16844352     0.07400
C91         C  0.53040351  0.48531917  0.18234448     0.01200
H92         H  0.49502093  0.45940894  0.14181493     0.08900
H93         H  0.53566231  0.50087650  0.19528158     0.07900
N94         N  0.56459693  0.35130920  0.13625120    -0.35900
N95         N  0.58831305  0.33665955  0.14537404    -0.28100
C96         C  0.59342005  0.30580250  0.13570127    -0.03300
C97         C  0.57164030  0.30015698  0.11962659     0.05300
C98         C  0.55396916  0.32993432  0.12039426     0.03400
H99         H  0.61172990  0.28865650  0.14009063     0.08500
H100        H  0.53577136  0.33652430  0.11009228     0.07300
N101        N  0.36131586  0.63220052  0.19527429    -0.27100
N102        N  0.36530546  0.59881590  0.20273938    -0.34900
C103        C  0.33798643  0.58418950  0.21718908     0.01300
C104        C  0.31622755  0.61017637  0.21902441     0.07300
C105        C  0.33186072  0.64002594  0.20474753    -0.05800
H106        H  0.33246544  0.55506193  0.22515811     0.08000
H107        H  0.32134564  0.66461970  0.20113055     0.09200
Cu108      Cu  0.40522916  0.57330593  0.19152558     0.44200
Cu109      Cu  0.39041750  0.66051102  0.17121303     0.42000
Cu110      Cu  0.43814019  0.60404793  0.14504796     0.43900
N111        N  0.44329673  0.55135342  0.17660576    -0.34400
N112        N  0.45257936  0.55989008  0.15965502    -0.28700
C113        C  0.47557631  0.53866112  0.15408850    -0.04800
C114        C  0.48192297  0.51661130  0.16824174     0.07400
C115        C  0.46120489  0.52555833  0.18228880     0.01200
H116        H  0.48813357  0.54044909  0.14083698     0.08900
H117        H  0.45879318  0.51368581  0.19564513     0.07900
N118        N  0.42703004  0.65626135  0.13542235    -0.35900
N119        N  0.41075992  0.67731634  0.14539216    -0.28100
C120        C  0.40856402  0.71001202  0.13597384    -0.03300
C121        C  0.42378479  0.70966553  0.11911351     0.05300
C122        C  0.43564924  0.67531354  0.11926346     0.03400
H123        H  0.39646654  0.73233333  0.14104655     0.08500
H124        H  0.45068182  0.66577783  0.10860723     0.07300
O125        O  0.44576057  0.49128577  0.68504598    -0.72700
O126        O  0.48879102  0.43967305  0.64709754    -0.73700
O127        O  0.49599964  0.44332575  0.68440439    -0.62300
O128        O  0.44178465  0.49101068  0.64766340    -0.70700
O129        O  0.51206328  0.55638691  0.64619519    -0.70300
O130        O  0.56236325  0.51269883  0.68345900    -0.61500
O131        O  0.55909136  0.50527270  0.64647921    -0.74000
O132        O  0.51207384  0.56072180  0.68342106    -0.72800
Cu133      Cu  0.46561296  0.46395200  0.66610179     1.04600
Cu134      Cu  0.53872213  0.53614611  0.66486829     1.04300
C135        C  0.47118627  0.53379870  0.69010333     0.93500
C136        C  0.53049675  0.46336589  0.64098734     0.92600
C137        C  0.53865523  0.47123671  0.68945858     0.84800
C138        C  0.46954888  0.53141833  0.64095450     0.91000
N139        N  0.64829284  0.25503670  0.47557932    -0.27100
N140        N  0.63744772  0.21576059  0.46725188    -0.34900
C141        C  0.66117620  0.22668142  0.45193934     0.01300
C142        C  0.68872529  0.27515666  0.45070635     0.07300
C143        C  0.67907471  0.29183549  0.46584417    -0.05800
H144        H  0.65996294  0.20126412  0.44271875     0.08000
H145        H  0.69401632  0.32813102  0.46970106     0.09200
Cu146      Cu  0.59356035  0.14955002  0.47806506     0.44200
Cu147      Cu  0.62415388  0.25728212  0.50052171     0.42000
Cu148      Cu  0.55563531  0.14759644  0.52353798     0.43900
N149        N  0.55214179  0.08835382  0.49239922    -0.34400
N150        N  0.53969692  0.08758120  0.50897670    -0.28700
C151        C  0.51433269  0.04258995  0.51428407    -0.04800
C152        C  0.51008005  0.01368712  0.50035180     0.07400
C153        C  0.53442929  0.04393407  0.48670968     0.01200
H154        H  0.49925998  0.03168189  0.52723290     0.08900
H155        H  0.53923761  0.03438946  0.47361402     0.07900
N156        N  0.57482446  0.21283028  0.53459591    -0.35900
N157        N  0.60015868  0.25272536  0.52606051    -0.28100
C158        C  0.60678976  0.28846629  0.53642843    -0.03300
C159        C  0.58489467  0.27057481  0.55238591     0.05300
C160        C  0.56440259  0.22232392  0.55064309     0.03400
H161        H  0.62513409  0.32478842  0.53241959     0.08500
H162        H  0.54337172  0.19606861  0.56032313     0.07300
N163        N  0.35534943  0.72192363  0.47167844    -0.27100
N164        N  0.37173593  0.76137838  0.46288619    -0.34900
C165        C  0.35358513  0.75079314  0.44649870     0.01300
C166        C  0.32457612  0.70225701  0.44488420     0.07300
C167        C  0.32638552  0.68545498  0.46127285    -0.05800
H168        H  0.35958112  0.77661336  0.43668450     0.08000
H169        H  0.30582311  0.64963242  0.46576305     0.09200
Cu170      Cu  0.41338740  0.82734484  0.47484418     0.44200
Cu171      Cu  0.36935687  0.71938656  0.49792182     0.42000
Cu172      Cu  0.42340210  0.82672947  0.52309142     0.43900
N173        N  0.44709176  0.88770981  0.49073348    -0.34400
N174        N  0.44835109  0.88727567  0.50811375    -0.28700
C175        C  0.47049236  0.93180804  0.51417074    -0.04800
C176        C  0.48444561  0.96180773  0.49998053     0.07400
C177        C  0.46915473  0.93263897  0.48534630     0.01200
H178        H  0.47680943  0.94163516  0.52790497     0.08900
H179        H  0.47312422  0.94327320  0.47175981     0.07900
N180        N  0.40437544  0.76183695  0.53381058    -0.35900
N181        N  0.38529817  0.72294406  0.52429142    -0.28100
C182        C  0.38049223  0.68762071  0.53421454    -0.03300
C183        C  0.39666551  0.70458519  0.55097382     0.05300
C184        C  0.41210864  0.75205496  0.55017044     0.03400
H185        H  0.36836609  0.65270010  0.52925418     0.08500
H186        H  0.42901788  0.77783110  0.56055470     0.07300
C187        C  0.54488094  0.44066138  0.62775397    -0.11700
C188        C  0.52102685  0.42525058  0.61155055     0.03700
C189        C  0.52956355  0.39700034  0.60036150    -0.12300
C190        C  0.56082581  0.38243905  0.60520750     0.18600
C191        C  0.58527120  0.39844885  0.62133525    -0.09300
C192        C  0.57742458  0.42760111  0.63238514    -0.02300
H193        H  0.51107654  0.38564671  0.58791013     0.05100
C194        C  0.56769583  0.35128304  0.59306189     0.20600
H195        H  0.59498903  0.43812379  0.64502615     0.10300
C196        C  0.61212497  0.36769610  0.58549723    -0.15600
C197        C  0.61897776  0.34090658  0.57293847     0.03300
C198        C  0.58056178  0.29724477  0.56725390    -0.11000
C199        C  0.53662618  0.27982444  0.57544009    -0.01000
C200        C  0.53003244  0.30627360  0.58826497    -0.06200
H201        H  0.64163159  0.40176466  0.58929154     0.06300
H202        H  0.50693031  0.24599146  0.57154403     0.09700
Br203      Br  0.62671830  0.37843853  0.62949645    -0.05900
Br204      Br  0.47594817  0.44144735  0.60423989    -0.02800
Br205      Br  0.68224964  0.36443497  0.56496291     0.00000
Br206      Br  0.46918797  0.27898170  0.59911143    -0.04300
C207        C  0.45350573  0.55091975  0.62719603    -0.11700
C208        C  0.48209571  0.57340215  0.61245887     0.03700
C209        C  0.47005846  0.59782220  0.60088274    -0.12300
C210        C  0.43049857  0.60164999  0.60390548     0.18600
C211        C  0.40114775  0.57818416  0.61837851    -0.09300
C212        C  0.41258358  0.55269213  0.62980029    -0.02300
H213        H  0.49220533  0.61465949  0.58957249     0.05100
C214        C  0.42036602  0.62951449  0.59152430     0.20600
H215        H  0.39084492  0.53632906  0.64124104     0.10300
C216        C  0.37850006  0.60701042  0.58170035    -0.15600
C217        C  0.36909781  0.63125327  0.56901992     0.03300
C218        C  0.40264207  0.67888994  0.56559486    -0.11000
C219        C  0.44394337  0.70177574  0.57582351    -0.01000
C220        C  0.45299193  0.67759961  0.58867931    -0.06200
H221        H  0.35306169  0.57016113  0.58382189     0.06300
H222        H  0.46998212  0.73834414  0.57351268     0.09700
Br223      Br  0.34718853  0.58275316  0.62384884    -0.05900
Br224      Br  0.53818526  0.57208512  0.60742748    -0.02800
Br225      Br  0.30856737  0.59771817  0.55768493     0.00000
Br226      Br  0.51025144  0.71203403  0.60207278    -0.04300
C227        C  0.89752581  0.42757483  0.37137105    -0.11700
C228        C  0.89553680  0.39168675  0.38186318     0.03700
C229        C  0.85914424  0.36818062  0.39402342    -0.12300
C230        C  0.82411197  0.37932358  0.39604856     0.18600
C231        C  0.82607214  0.41528606  0.38580910    -0.09300
C232        C  0.86263906  0.43916697  0.37364253    -0.02300
H233        H  0.85831069  0.34110847  0.40209042     0.05100
C234        C  0.78771313  0.35446072  0.40968750     0.20600
H235        H  0.86331420  0.46637741  0.36572600     0.10300
C236        C  0.80069919  0.36572771  0.42733986    -0.15600
C237        C  0.76917069  0.34032534  0.44082667     0.03300
C238        C  0.72315725  0.30298489  0.43675852    -0.11000
C239        C  0.71029539  0.29147778  0.41902453    -0.01000
C240        C  0.74217487  0.31683072  0.40553159    -0.06200
H241        H  0.83617926  0.39364275  0.43064298     0.06300
H242        H  0.67539151  0.26257649  0.41565512     0.09700
Br243      Br  0.77997613  0.43323637  0.38817189    -0.05900
Br244      Br  0.94243463  0.37431801  0.38109976    -0.02800
Br245      Br  0.79314947  0.35529148  0.46440379     0.00000
Br246      Br  0.72299342  0.29767698  0.38167601    -0.04300
C247        C  0.88753349  0.44631528  0.29678131    -0.11700
C248        C  0.88931279  0.43264296  0.27939454     0.03700
C249        C  0.85350775  0.42434242  0.26746674    -0.12300
C250        C  0.81565808  0.42929003  0.27264995     0.18600
C251        C  0.81268473  0.44057464  0.29024550    -0.09300
C252        C  0.84873176  0.44955544  0.30207028    -0.02300
H253        H  0.85590699  0.41537380  0.25396872     0.05100
C254        C  0.78034992  0.42386858  0.25945009     0.20600
H255        H  0.84673256  0.45964047  0.31544706     0.10300
C256        C  0.74691472  0.37896314  0.25326850    -0.15600
C257        C  0.71311634  0.37262879  0.24075638     0.03300
C258        C  0.71273925  0.41188911  0.23405210    -0.11000
C259        C  0.74589562  0.45677868  0.24047770    -0.01000
C260        C  0.77968512  0.46301059  0.25297046    -0.06200
H261        H  0.74681414  0.34864549  0.25835686     0.06300
H262        H  0.74637992  0.48730453  0.23541214     0.09700
Br263      Br  0.76003901  0.44409149  0.29866056    -0.05900
Br264      Br  0.94172164  0.42886936  0.27093476    -0.02800
Br265      Br  0.66665890  0.30928726  0.23430564     0.00000
Br266      Br  0.82536592  0.52577420  0.26031382    -0.04300
C267        C  0.09504033  0.55039394  0.29255426    -0.11700
C268        C  0.13956268  0.59135438  0.29505772     0.03700
C269        C  0.17474681  0.60466903  0.28230146    -0.12300
C270        C  0.16632719  0.57759404  0.26700961     0.18600
C271        C  0.12149012  0.53709217  0.26440718    -0.09300
C272        C  0.08640802  0.52397414  0.27709415    -0.02300
H273        H  0.20939433  0.63528670  0.28461759     0.05100
C274        C  0.20591940  0.58907505  0.25490836     0.20600
H275        H  0.05269377  0.49185225  0.27519344     0.10300
C276        C  0.24288324  0.58365095  0.26077026    -0.15600
C277        C  0.27967842  0.59134770  0.24953860     0.03300
C278        C  0.27943602  0.60382478  0.23184953    -0.11000
C279        C  0.24313936  0.61093756  0.22624254    -0.01000
C280        C  0.20697290  0.60420274  0.23762312    -0.06200
H281        H  0.24304382  0.57324446  0.27420500     0.06300
H282        H  0.24245250  0.62133938  0.21286574     0.09700
Br283      Br  0.10768015  0.49596465  0.24461125    -0.05900
Br284      Br  0.15581095  0.62688182  0.31652592    -0.02800
Br285      Br  0.33063818  0.58776343  0.25969765     0.00000
Br286      Br  0.16056277  0.61737378  0.22915626    -0.04300
C287        C  0.10446920  0.54329729  0.36894553    -0.11700
C288        C  0.09927263  0.56182779  0.38489403     0.03700
C289        C  0.13771557  0.58630820  0.39626036    -0.12300
C290        C  0.18216034  0.59347242  0.39204496     0.18600
C291        C  0.18690567  0.57281125  0.37653403    -0.09300
C292        C  0.14814095  0.54791607  0.36513036    -0.02300
H293        H  0.13310146  0.60062281  0.40838380     0.05100
C294        C  0.22249431  0.62292114  0.40408706     0.20600
H295        H  0.15270826  0.53399002  0.35290241     0.10300
C296        C  0.24444270  0.60284862  0.41316315    -0.15600
C297        C  0.27916875  0.62846525  0.42592892     0.03300
C298        C  0.29199399  0.67509202  0.43011891    -0.11000
C299        C  0.27128627  0.69561248  0.42047836    -0.01000
C300        C  0.23699948  0.67013756  0.40762528    -0.06200
H301        H  0.23394157  0.56674202  0.41051055     0.06300
H302        H  0.28065403  0.73130754  0.42329413     0.09700
Br303      Br  0.24606377  0.58000818  0.36982102    -0.05900
Br304      Br  0.04000128  0.55394142  0.39197697    -0.02800
Br305      Br  0.30898065  0.59815255  0.43641038     0.00000
Br306      Br  0.21104182  0.70167436  0.39527604    -0.04300
C307        C  0.69287218  0.43640145  0.77188775    -0.11700
C308        C  0.66488455  0.45651304  0.77430787     0.03700
C309        C  0.63752562  0.45686802  0.76043689    -0.12300
C310        C  0.63662575  0.43658858  0.74414008     0.18600
C311        C  0.66481235  0.41665913  0.74170727    -0.09300
C312        C  0.69290776  0.41709010  0.75549204    -0.02300
H313        H  0.61732043  0.47370498  0.76229998     0.05100
C314        C  0.60931873  0.44035107  0.72951434     0.20600
H315        H  0.71394021  0.40117008  0.75353759     0.10300
C316        C  0.63367974  0.46523264  0.71452618    -0.15600
C317        C  0.61047289  0.47296718  0.70092997     0.03300
C318        C  0.56187701  0.45683140  0.70235751    -0.11000
C319        C  0.53696967  0.43052835  0.71707913    -0.01000
C320        C  0.56031372  0.42229630  0.73064585    -0.06200
H321        H  0.67130549  0.47943236  0.71350275     0.06300
H322        H  0.49969329  0.41782988  0.71834107     0.09700
Br323      Br  0.66488748  0.38678594  0.72008971    -0.05900
Br324      Br  0.66474364  0.48659669  0.79586615    -0.02800
Br325      Br  0.64724320  0.50479868  0.68055148     0.00000
Br326      Br  0.52379296  0.38642361  0.75041455    -0.04300
C327        C  0.30938540  0.58054090  0.76659709    -0.11700
C328        C  0.29331487  0.53818763  0.75717474     0.03700
C329        C  0.32230436  0.53525153  0.74446972    -0.12300
C330        C  0.36765076  0.57356301  0.74100507     0.18600
C331        C  0.38317894  0.61615341  0.74999153    -0.09300
C332        C  0.35425276  0.61927936  0.76265541    -0.02300
H333        H  0.31000677  0.50228316  0.73762665     0.05100
C334        C  0.39880841  0.56737728  0.72866512     0.20600
H335        H  0.36727181  0.65214822  0.76965076     0.10300
C336        C  0.41180346  0.59132936  0.71259034    -0.15600
C337        C  0.43827022  0.58320039  0.70022895     0.03300
C338        C  0.45188614  0.55050364  0.70384791    -0.11000
C339        C  0.43991055  0.52752472  0.72007052    -0.01000
C340        C  0.41404453  0.53599764  0.73248570    -0.06200
H341        H  0.40009244  0.61531340  0.70943655     0.06300
H342        H  0.44983394  0.50198576  0.72293132     0.09700
Br343      Br  0.44460752  0.67022799  0.74615255    -0.05900
Br344      Br  0.23463077  0.48161166  0.76210069    -0.02800
Br345      Br  0.45135630  0.61419274  0.67800224     0.00000
Br346      Br  0.40029518  0.50370256  0.75447865    -0.04300
C347        C  0.42897422  0.74201160  0.10478780    -0.11700
C348        C  0.41665771  0.72699187  0.08717778     0.03700
C349        C  0.42230550  0.75924622  0.07425202    -0.12300
C350        C  0.43959330  0.80638808  0.07855532     0.18600
C351        C  0.45091496  0.82125505  0.09611832    -0.09300
C352        C  0.44549614  0.78920144  0.10903939    -0.02300
H353        H  0.41320244  0.74753775  0.06075210     0.05100
C354        C  0.44824460  0.84014412  0.06442699     0.20600
H355        H  0.45496870  0.80147257  0.12246337     0.10300
C356        C  0.41473170  0.85255447  0.06068461    -0.15600
C357        C  0.42279823  0.88524805  0.04752344     0.03300
C358        C  0.46554581  0.90646008  0.03789250    -0.11000
C359        C  0.49854458  0.89305334  0.04173127    -0.01000
C360        C  0.49021335  0.86042365  0.05475600    -0.06200
H361        H  0.38220608  0.83683162  0.06810481     0.06300
H362        H  0.53151023  0.90813845  0.03463264     0.09700
Br363      Br  0.47503920  0.88528304  0.10293066    -0.05900
Br364      Br  0.38885316  0.66263535  0.08009120    -0.02800
Br365      Br  0.37399564  0.89901271  0.04378473     0.00000
Br366      Br  0.53771965  0.84518703  0.05913862    -0.04300
C367        C  0.57033222  0.26999274  0.10490698    -0.11700
C368        C  0.52987086  0.24303871  0.09432850     0.03700
C369        C  0.52992557  0.21310108  0.08134948    -0.12300
C370        C  0.56939836  0.20876825  0.07876089     0.18600
C371        C  0.60983749  0.23575070  0.08916236    -0.09300
C372        C  0.61007355  0.26600067  0.10205463    -0.02300
H373        H  0.49841003  0.19194476  0.07353417     0.05100
C374        C  0.56637918  0.17407487  0.06573721     0.20600
H375        H  0.64144675  0.28617505  0.11003182     0.10300
C376        C  0.58934152  0.18928170  0.04949151    -0.15600
C377        C  0.58238710  0.15680119  0.03624050     0.03300
C378        C  0.55214550  0.10843195  0.03921752    -0.11000
C379        C  0.53058041  0.09331395  0.05565753    -0.01000
C380        C  0.53775079  0.12561714  0.06890464    -0.06200
H381        H  0.61124427  0.22648852  0.04689365     0.06300
H382        H  0.50703443  0.05618423  0.05804061     0.09700
Br383      Br  0.66453271  0.23055130  0.08685353    -0.05900
Br384      Br  0.47181929  0.24149045  0.09796510    -0.02800
Br385      Br  0.61127889  0.17997473  0.01381709     0.00000
Br386      Br  0.50705890  0.10204436  0.09104630    -0.04300
C387        C  0.45277951  0.90901424  0.96039771    -0.11700
C388        C  0.43585446  0.91810074  0.94487990     0.03700
C389        C  0.41115286  0.88232409  0.93248205    -0.12300
C390        C  0.40192678  0.83679111  0.93539207     0.18600
C391        C  0.42015476  0.82804639  0.95068455    -0.09300
C392        C  0.44564811  0.86417285  0.96297700    -0.02300
H393        H  0.39823278  0.88982496  0.92064389     0.05100
C394        C  0.37296179  0.79914660  0.92237252     0.20600
H395        H  0.45792334  0.85662204  0.97497245     0.10300
C396        C  0.39312826  0.77745052  0.91309531    -0.15600
C397        C  0.36721287  0.74260836  0.90046005     0.03300
C398        C  0.32025567  0.72969330  0.89645229    -0.11000
C399        C  0.29992739  0.75098327  0.90600275    -0.01000
C400        C  0.32565941  0.78517422  0.91886447    -0.06200
H401        H  0.42925710  0.78746131  0.91581057     0.06300
H402        H  0.26392957  0.74143997  0.90333837     0.09700
Br403      Br  0.40808371  0.76663087  0.95604090    -0.05900
Br404      Br  0.44570315  0.97898722  0.94004213    -0.02800
Br405      Br  0.39720715  0.71177896  0.89039487     0.00000
Br406      Br  0.29402594  0.81059751  0.93168699    -0.04300
C407        C  0.55236903  0.10840137  0.96102852    -0.11700
C408        C  0.57901089  0.10549401  0.94713015     0.03700
C409        C  0.60083381  0.14177410  0.93501647    -0.12300
C410        C  0.59648811  0.18122275  0.93627961     0.18600
C411        C  0.56764991  0.18310705  0.94945368    -0.09300
C412        C  0.54583423  0.14677852  0.96175863    -0.02300
H413        H  0.62192600  0.13949620  0.92463051     0.05100
C414        C  0.62291007  0.21956272  0.92360165     0.20600
H415        H  0.52505475  0.14926175  0.97220966     0.10300
C416        C  0.60916197  0.21165559  0.90593123    -0.15600
C417        C  0.63692585  0.24389457  0.89302075     0.03300
C418        C  0.67928958  0.28555771  0.89777869    -0.11000
C419        C  0.69291591  0.29341449  0.91552110    -0.01000
C420        C  0.66526879  0.26075151  0.92837880    -0.06200
H421        H  0.57753626  0.17921533  0.90208283     0.06300
H422        H  0.72548636  0.32486681  0.91938462     0.09700
Br423      Br  0.55715734  0.23438994  0.95100676    -0.05900
Br424      Br  0.58578536  0.05217230  0.94354956    -0.02800
Br425      Br  0.61744617  0.22575387  0.86908298     0.00000
Br426      Br  0.68833805  0.27226533  0.95207966    -0.04300
loop_ 
_geom_bond_atom_site_label_1 
_geom_bond_atom_site_label_2 
_geom_bond_distance 
_geom_bond_site_symmetry_2 
_ccdc_geom_bond_type 
O1           Cu9   1.995   1_566  S
O1           C11   1.275       .  A
O2           Cu9   1.993       .  S
O2           C12   1.274       .  A
O3           Cu9   2.040   1_556  S
O3           C13   1.282       .  A
O4           Cu9   2.041   1_565  S
O4           C14   1.282       .  A
O5          Cu10   1.984   1_564  S
O5           C14   1.275       .  A
O6          Cu10   1.981       .  S
O6           C13   1.274       .  A
O7          Cu10   2.039   1_554  S
O7           C12   1.281       .  A
O8          Cu10   2.039   1_565  S
O8           C11   1.281       .  A
Cu9         Cu10   2.369   1_554  S
C11         C387   1.476       .  S
C12         C378   1.474       .  S
C13         C407   1.478       .  S
C14         C358   1.495       .  S
N15          N16   1.321       .  A
N15          C19   1.344       .  A
N15         Cu23   2.072       .  S
N16          C17   1.349       .  A
N16         Cu22   2.090       .  S
C17          C18   1.391       .  A
C17          H20   1.082       .  S
C18         C398   1.491       .  S
C18          C19   1.386       .  A
C19          H21   1.081       .  S
Cu22         N25   2.090       .  S
Cu23         N33   2.072       .  S
Cu24         N26   2.090       .  S
Cu24         N32   2.089       .  S
N25          N26   1.325       .  A
N25          C29   1.348       .  A
N26          C27   1.348       .  A
C27          C28   1.384       .  A
C27          H30   1.082       .  S
C28          C52   1.476   1_455  S
C28          C29   1.384       .  A
C29          H31   1.082       .  S
N32          N33   1.321       .  A
N32          C36   1.349       .  A
N33          C34   1.344       .  A
C34          C35   1.385       .  A
C34          H37   1.082       .  S
C35         C327   1.489       .  S
C35          C36   1.391       .  A
C36          H38   1.081       .  S
N39          N40   1.320       .  A
N39          C43   1.341       .  A
N39         Cu47   2.052       .  S
N40          C41   1.349       .  A
N40         Cu46   2.092       .  S
C41          C42   1.390       .  A
C41          H44   1.082       .  S
C42         C418   1.482       .  S
C42          C43   1.381       .  A
C43          H45   1.081       .  S
Cu46         N49   2.093       .  S
Cu47         N57   2.052       .  S
Cu48         N50   2.087       .  S
Cu48         N56   2.086       .  S
N49          N50   1.325       .  A
N49          C53   1.348       .  A
N50          C51   1.347       .  A
C51          C52   1.383       .  A
C51          H54   1.082       .  S
C52          C53   1.385       .  A
C53          H55   1.082       .  S
N56          N57   1.321       .  A
N56          C60   1.348       .  A
N57          C58   1.341       .  A
C58          C59   1.379       .  A
C58          H61   1.082       .  S
C59         C307   1.475       .  S
C59          C60   1.387       .  A
C60          H62   1.082       .  S
O63         Cu71   1.993       .  S
O63          C73   1.275       .  A
O64         Cu71   1.992   1_455  S
O64          C74   1.275       .  A
O65         Cu71   2.038   1_455  S
O65          C75   1.282       .  A
O66         Cu71   2.030       .  S
O66          C76   1.281       .  A
O67         Cu72   1.998       .  S
O67          C76   1.275       .  A
O68         Cu72   1.988   1_455  S
O68          C75   1.274       .  A
O69         Cu72   2.045   1_455  S
O69          C74   1.282       .  A
O70         Cu72   2.036       .  S
O70          C73   1.281       .  A
Cu71        Cu72   2.372       .  S
C73         C247   1.477       .  S
C74         C287   1.481       .  S
C75         C267   1.477       .  S
C76         C227   1.486       .  S
N77          N78   1.321       .  A
N77          C81   1.342       .  A
N77         Cu85   2.062       .  S
N78          C79   1.349       .  A
N78         Cu84   2.092       .  S
C79          C80   1.390       .  A
C79          H82   1.082       .  S
C80         C258   1.483       .  S
C80          C81   1.382       .  A
C81          H83   1.082       .  S
Cu84         N87   2.094       .  S
Cu85         N95   2.062       .  S
Cu86         N88   2.092       .  S
Cu86         N94   2.091       .  S
N87          N88   1.325       .  A
N87          C91   1.348       .  A
N88          C89   1.348       .  A
C89          C90   1.384       .  A
C89          H92   1.082       .  S
C90         C114   1.477       .  S
C90          C91   1.385       .  A
C91          H93   1.082       .  S
N94          N95   1.321       .  A
N94          C98   1.349       .  A
N95          C96   1.342       .  A
C96          C97   1.383       .  A
C96          H99   1.082       .  S
C97         C367   1.487       .  S
C97          C98   1.392       .  A
C98         H100   1.081       .  S
N101        N102   1.320       .  A
N101        C105   1.343       .  A
N101       Cu109   2.063       .  S
N102        C103   1.348       .  A
N102       Cu108   2.089       .  S
C103        C104   1.392       .  A
C103        H106   1.081       .  S
C104        C278   1.490       .  S
C104        C105   1.386       .  A
C105        H107   1.082       .  S
Cu108       N111   2.090       .  S
Cu109       N119   2.064       .  S
Cu110       N112   2.095       .  S
Cu110       N118   2.095       .  S
N111        N112   1.325       .  A
N111        C115   1.347       .  A
N112        C113   1.349       .  A
C113        C114   1.385       .  A
C113        H116   1.082       .  S
C114        C115   1.384       .  A
C115        H117   1.082       .  S
N118        N119   1.322       .  A
N118        C122   1.350       .  A
N119        C120   1.342       .  A
C120        C121   1.382       .  A
C120        H123   1.082       .  S
C121        C347   1.485       .  S
C121        C122   1.391       .  A
C122        H124   1.081       .  S
O125       Cu133   1.988       .  S
O125        C135   1.273       .  A
O126       Cu133   1.993       .  S
O126        C136   1.274       .  A
O127       Cu133   2.041       .  S
O127        C137   1.282       .  A
O128       Cu133   2.042       .  S
O128        C138   1.283       .  A
O129       Cu134   1.973       .  S
O129        C138   1.272       .  A
O130       Cu134   1.971       .  S
O130        C137   1.272       .  A
O131       Cu134   2.045       .  S
O131        C136   1.282       .  A
O132       Cu134   2.046       .  S
O132        C135   1.283       .  A
Cu133      Cu134   2.372       .  S
C135        C338   1.476       .  S
C136        C187   1.477       .  S
C137        C318   1.477       .  S
C138        C207   1.474       .  S
N139        N140   1.322       .  A
N139        C143   1.345       .  A
N139       Cu147   2.077       .  S
N140        C141   1.349       .  A
N140       Cu146   2.087       .  S
C141        C142   1.388       .  A
C141        H144   1.082       .  S
C142        C238   1.485       .  S
C142        C143   1.385       .  A
C143        H145   1.082       .  S
Cu146       N149   2.088       .  S
Cu147       N157   2.078       .  S
Cu148       N150   2.095       .  S
Cu148       N156   2.095       .  S
N149        N150   1.325       .  A
N149        C153   1.348       .  A
N150        C151   1.349       .  A
C151        C152   1.386       .  A
C151        H154   1.082       .  S
C152        C176   1.480   1_545  S
C152        C153   1.384       .  A
C153        H155   1.082       .  S
N156        N157   1.322       .  A
N156        C160   1.350       .  A
N157        C158   1.345       .  A
C158        C159   1.385       .  A
C158        H161   1.082       .  S
C159        C198   1.488       .  S
C159        C160   1.389       .  A
C160        H162   1.082       .  S
N163        N164   1.320       .  A
N163        C167   1.344       .  A
N163       Cu171   2.065       .  S
N164        C165   1.349       .  A
N164       Cu170   2.097       .  S
C165        C166   1.393       .  A
C165        H168   1.082       .  S
C166        C298   1.492       .  S
C166        C167   1.386       .  A
C167        H169   1.081       .  S
Cu170       N173   2.098       .  S
Cu171       N181   2.064       .  S
Cu172       N174   2.087       .  S
Cu172       N180   2.086       .  S
N173        N174   1.325       .  A
N173        C177   1.348       .  A
N174        C175   1.348       .  A
C175        C176   1.384       .  A
C175        H178   1.082       .  S
C176        C177   1.386       .  A
C177        H179   1.082       .  S
N180        N181   1.321       .  A
N180        C184   1.348       .  A
N181        C182   1.342       .  A
C182        C183   1.384       .  A
C182        H185   1.081       .  S
C183        C218   1.484       .  S
C183        C184   1.390       .  A
C184        H186   1.082       .  S
C187        C188   1.409       .  A
C187        C192   1.403       .  A
C188        C189   1.400       .  A
C188       Br204   1.918       .  S
C189        C190   1.404       .  A
C189        H193   1.083       .  S
C190        C194   1.490       .  S
C190        C191   1.412       .  A
C191        C192   1.405       .  A
C191       Br203   1.918       .  S
C192        H195   1.083       .  S
C194        C196   1.403       .  A
C194        C200   1.412       .  A
C196        C197   1.402       .  A
C196        H201   1.083       .  S
C197        C198   1.413       .  A
C197       Br205   1.919       .  S
C198        C199   1.405       .  A
C199        C200   1.403       .  A
C199        H202   1.083       .  S
C200       Br206   1.919       .  S
C207        C208   1.412       .  A
C207        C212   1.403       .  A
C208        C209   1.395       .  A
C208       Br224   1.922       .  S
C209        C210   1.401       .  A
C209        H213   1.084       .  S
C210        C214   1.484       .  S
C210        C211   1.412       .  A
C211        C212   1.403       .  A
C211       Br223   1.918       .  S
C212        H215   1.083       .  S
C214        C216   1.401       .  A
C214        C220   1.411       .  A
C216        C217   1.399       .  A
C216        H221   1.083       .  S
C217        C218   1.414       .  A
C217       Br225   1.920       .  S
C218        C219   1.405       .  A
C219        C220   1.400       .  A
C219        H222   1.083       .  S
C220       Br226   1.921       .  S
C227        C228   1.416       .  A
C227        C232   1.408       .  A
C228        C229   1.398       .  A
C228       Br244   1.922       .  S
C229        C230   1.400       .  A
C229        H233   1.084       .  S
C230        C234   1.481       .  S
C230        C231   1.408       .  A
C231        C232   1.403       .  A
C231       Br243   1.917       .  S
C232        H235   1.083       .  S
C234        C236   1.400       .  A
C234        C240   1.408       .  A
C236        C237   1.399       .  A
C236        H241   1.084       .  S
C237        C238   1.413       .  A
C237       Br245   1.920       .  S
C238        C239   1.406       .  A
C239        C240   1.404       .  A
C239        H242   1.083       .  S
C240       Br246   1.918       .  S
C247        C248   1.409       .  A
C247        C252   1.405       .  A
C248        C249   1.403       .  A
C248       Br264   1.918       .  S
C249        C250   1.404       .  A
C249        H253   1.083       .  S
C250        C254   1.481       .  S
C250        C251   1.407       .  A
C251        C252   1.399       .  A
C251       Br263   1.919       .  S
C252        H255   1.084       .  S
C254        C256   1.400       .  A
C254        C260   1.409       .  A
C256        C257   1.401       .  A
C256        H261   1.084       .  S
C257        C258   1.414       .  A
C257       Br265   1.920       .  S
C258        C259   1.404       .  A
C259        C260   1.400       .  A
C259        H262   1.083       .  S
C260       Br266   1.919       .  S
C267        C268   1.409       .  A
C267        C272   1.404       .  A
C268        C269   1.403       .  A
C268       Br284   1.919       .  S
C269        C270   1.405       .  A
C269        H273   1.083       .  S
C270        C274   1.484       .  S
C270        C271   1.409       .  A
C271        C272   1.398       .  A
C271       Br283   1.920       .  S
C272        H275   1.083       .  S
C274        C276   1.402       .  A
C274        C280   1.407       .  A
C276        C277   1.401       .  A
C276        H281   1.084       .  S
C277        C278   1.414       .  A
C277       Br285   1.919       .  S
C278        C279   1.409       .  A
C279        C280   1.401       .  A
C279        H282   1.083       .  S
C280       Br286   1.920       .  S
C287        C288   1.410       .  A
C287        C292   1.405       .  A
C288        C289   1.398       .  A
C288       Br304   1.920       .  S
C289        C290   1.403       .  A
C289        H293   1.084       .  S
C290        C294   1.490       .  S
C290        C291   1.413       .  A
C291        C292   1.407       .  A
C291       Br303   1.918       .  S
C292        H295   1.083       .  S
C294        C296   1.403       .  A
C294        C300   1.411       .  A
C296        C297   1.404       .  A
C296        H301   1.083       .  S
C297        C298   1.417       .  A
C297       Br305   1.920       .  S
C298        C299   1.405       .  A
C299        C300   1.400       .  A
C299        H302   1.083       .  S
C300       Br306   1.920       .  S
C307        C308   1.411       .  A
C307        C312   1.402       .  A
C308        C309   1.397       .  A
C308       Br324   1.920       .  S
C309        C310   1.403       .  A
C309        H313   1.083       .  S
C310        C314   1.483       .  S
C310        C311   1.412       .  A
C311        C312   1.399       .  A
C311       Br323   1.920       .  S
C312        H315   1.083       .  S
C314        C316   1.400       .  A
C314        C320   1.413       .  A
C316        C317   1.394       .  A
C316        H321   1.084       .  S
C317        C318   1.414       .  A
C317       Br325   1.923       .  S
C318        C319   1.403       .  A
C319        C320   1.403       .  A
C319        H322   1.083       .  S
C320       Br326   1.919       .  S
C327        C328   1.414       .  A
C327        C332   1.408       .  A
C328        C329   1.402       .  A
C328       Br344   1.919       .  S
C329        C330   1.404       .  A
C329        H333   1.084       .  S
C330        C334   1.487       .  S
C330        C331   1.407       .  A
C331        C332   1.401       .  A
C331       Br343   1.918       .  S
C332        H335   1.083       .  S
C334        C336   1.406       .  A
C334        C340   1.410       .  A
C336        C337   1.405       .  A
C336        H341   1.083       .  S
C337        C338   1.409       .  A
C337       Br345   1.918       .  S
C338        C339   1.403       .  A
C339        C340   1.399       .  A
C339        H342   1.084       .  S
C340       Br346   1.920       .  S
C347        C348   1.413       .  A
C347        C352   1.407       .  A
C348        C349   1.402       .  A
C348       Br364   1.918       .  S
C349        C350   1.402       .  A
C349        H353   1.084       .  S
C350        C354   1.479       .  S
C350        C351   1.406       .  A
C351        C352   1.399       .  A
C351       Br363   1.919       .  S
C352        H355   1.083       .  S
C354        C356   1.403       .  A
C354        C360   1.402       .  A
C356        C357   1.406       .  A
C356        H361   1.083       .  S
C357        C358   1.419       .  A
C357       Br365   1.920       .  S
C358        C359   1.412       .  A
C359        C360   1.395       .  A
C359        H362   1.083       .  S
C360       Br366   1.920       .  S
C367        C368   1.413       .  A
C367        C372   1.408       .  A
C368        C369   1.401       .  A
C368       Br384   1.919       .  S
C369        C370   1.403       .  A
C369        H373   1.084       .  S
C370        C374   1.483       .  S
C370        C371   1.405       .  A
C371        C372   1.401       .  A
C371       Br383   1.918       .  S
C372        H375   1.083       .  S
C374        C376   1.405       .  A
C374        C380   1.408       .  A
C376        C377   1.404       .  A
C376        H381   1.083       .  S
C377        C378   1.409       .  A
C377       Br385   1.918       .  S
C378        C379   1.402       .  A
C379        C380   1.399       .  A
C379        H382   1.084       .  S
C380       Br386   1.919       .  S
C387        C388   1.409       .  A
C387        C392   1.403       .  A
C388        C389   1.399       .  A
C388       Br404   1.920       .  S
C389        C390   1.404       .  A
C389        H393   1.084       .  S
C390        C394   1.488       .  S
C390        C391   1.413       .  A
C391        C392   1.404       .  A
C391       Br403   1.919       .  S
C392        H395   1.083       .  S
C394        C396   1.402       .  A
C394        C400   1.410       .  A
C396        C397   1.402       .  A
C396        H401   1.083       .  S
C397        C398   1.416       .  A
C397       Br405   1.920       .  S
C398        C399   1.406       .  A
C399        C400   1.402       .  A
C399        H402   1.083       .  S
C400       Br406   1.920       .  S
C407        C408   1.413       .  A
C407        C412   1.405       .  A
C408        C409   1.394       .  A
C408       Br424   1.922       .  S
C409        C410   1.399       .  A
C409        H413   1.084       .  S
C410        C414   1.479       .  S
C410        C411   1.409       .  A
C411        C412   1.405       .  A
C411       Br423   1.917       .  S
C412        H415   1.083       .  S
C414        C416   1.400       .  A
C414        C420   1.408       .  A
C416        C417   1.398       .  A
C416        H421   1.084       .  S
C417        C418   1.415       .  A
C417       Br425   1.921       .  S
C418        C419   1.405       .  A
C419        C420   1.401       .  A
C419        H422   1.083       .  S
C420       Br426   1.918       .  S
