geometry optimzed in LAMMPS
_audit_creation_date              2020-11-30 
_audit_creation_method            'lammps2cif' 
_symmetry_space_group_name_H-M    'P1' 
_symmetry_Int_Tables_number       1 
_symmetry_cell_setting            triclinic 
loop_ 
_symmetry_equiv_pos_as_xyz 
  x,y,z 
_cell_length_a                    30.34066723 
_cell_length_b                    30.356204594590185 
_cell_length_c                    90.89368871214505 
_cell_angle_alpha                 90.00340509139673 
_cell_angle_beta                  89.88103468667315 
_cell_angle_gamma                 119.98292947787179 
loop_ 
_atom_site_label 
_atom_site_type_symbol 
_atom_site_fract_x 
_atom_site_fract_y 
_atom_site_fract_z 
_atom_site_charge 
O1          O  0.96644319  0.92329462  0.24943550    -0.73500
O2          O  0.96820490  0.05044464  0.25003239    -0.73500
O3          O  0.96893749  0.98779396  0.22865428    -0.73600
O4          O  0.96545852  0.98554200  0.27064287    -0.73600
O5          O  0.05019795  0.02719650  0.27108644    -0.73600
O6          O  0.05385527  0.02988451  0.22906006    -0.73500
O7          O  0.05311681  0.09196574  0.25021113    -0.73500
O8          O  0.05114729  0.96492417  0.24989769    -0.73600
Ni9        Ni  0.96422824  0.98532577  0.24964820     1.25400
Ni10       Ni  0.05509406  0.02994247  0.25008507     1.25400
C11         C  0.00859288  0.92308591  0.24953899     0.88700
C12         C  0.01098219  0.09206422  0.25038583     0.88600
C13         C  0.01186410  0.00877318  0.22196152     0.88600
C14         C  0.00731077  0.00631064  0.27781610     0.88800
O15         O  0.05157347  0.46574805  0.25125394    -0.73500
O16         O  0.04905969  0.59054755  0.24875322    -0.73500
O17         O  0.04991937  0.53117829  0.27103325    -0.73600
O18         O  0.05065073  0.52483669  0.22894149    -0.73600
O19         O  0.96587441  0.48101518  0.22900229    -0.73600
O20         O  0.96512635  0.48775801  0.27102367    -0.73500
O21         O  0.96419540  0.54683491  0.24897834    -0.73500
O22         O  0.96687219  0.42232072  0.25128363    -0.73600
Ni23       Ni  0.05334105  0.52969373  0.24998667     1.25400
Ni24       Ni  0.96253000  0.48298940  0.25003859     1.25400
C25         C  0.00956580  0.42335090  0.25182983     0.88700
C26         C  0.00617538  0.58921181  0.24860403     0.88600
C27         C  0.00741768  0.50987247  0.27798027     0.88600
C28         C  0.00828997  0.50165007  0.22201906     0.88800
O29         O  0.46457353  0.05068224  0.25106205    -0.73500
O30         O  0.46636382  0.92548588  0.24921531    -0.73500
O31         O  0.46628973  0.98581495  0.27107621    -0.73600
O32         O  0.46433785  0.98995351  0.22911679    -0.73600
O33         O  0.54921737  0.03094230  0.22871207    -0.73600
O34         O  0.55102742  0.03027740  0.27074373    -0.73500
O35         O  0.55108848  0.96859170  0.24936887    -0.73500
O36         O  0.54937038  0.09371728  0.24996283    -0.73600
Ni37       Ni  0.46235754  0.98651929  0.25012874     1.25400
Ni38       Ni  0.55320433  0.03258086  0.24969797     1.25400
C39         C  0.50677234  0.09285939  0.25069547     0.88700
C40         C  0.50904732  0.92632018  0.24901896     0.88600
C41         C  0.50892557  0.00703445  0.27784809     0.88600
C42         C  0.50642857  0.00974823  0.22201017     0.88800
O43         O  0.46276545  0.48873061  0.23017771    -0.73500
O44         O  0.46419419  0.48765122  0.27223772    -0.73500
O45         O  0.46477443  0.55192471  0.25148332    -0.73600
O46         O  0.46225433  0.42456321  0.25105190    -0.73600
O47         O  0.54695883  0.46571007  0.25149877    -0.73600
O48         O  0.54955150  0.59302303  0.25021507    -0.73500
O49         O  0.54897430  0.53120550  0.27195671    -0.73500
O50         O  0.54750116  0.52710251  0.22986318    -0.73600
Ni51       Ni  0.46047130  0.48679388  0.25124034     1.25400
Ni52       Ni  0.55128570  0.53079313  0.25088126     1.25400
C53         C  0.50487825  0.50765713  0.22308717     0.88700
C54         C  0.50679622  0.50904015  0.27905061     0.88600
C55         C  0.50754400  0.59339647  0.25070826     0.88600
C56         C  0.50420822  0.42404167  0.25142836     0.88800
O57         O  0.03010372  0.04959545  0.39538390    -0.73500
O58         O  0.03069016  0.04938857  0.43735741    -0.73500
O59         O  0.09355150  0.04881546  0.41610612    -0.73600
O60         O  0.96739038  0.04963656  0.41645598    -0.73600
O61         O  0.92490624  0.96477642  0.41717535    -0.73600
O62         O  0.05036733  0.96417082  0.41565731    -0.73500
O63         O  0.98935164  0.96470573  0.43737487    -0.73500
O64         O  0.98564937  0.96488690  0.39534044    -0.73600
Ni65       Ni  0.03205159  0.05241593  0.41634052     1.25400
Ni66       Ni  0.98615446  0.96163969  0.41637797     1.25400
C67         C  0.00723952  0.00738879  0.38842207     0.88700
C68         C  0.00957036  0.00702592  0.44432836     0.88600
C69         C  0.09274237  0.00618484  0.41563744     0.88600
C70         C  0.92546327  0.00717956  0.41702887     0.88800
O71         O  0.96139701  0.54085409  0.41645659    -0.73500
O72         O  0.08431502  0.53460474  0.41739440    -0.73500
O73         O  0.02484134  0.53869310  0.39587252    -0.73600
O74         O  0.02119762  0.53693258  0.43779604    -0.73600
O75         O  0.97767647  0.45214754  0.43758751    -0.73600
O76         O  0.97696139  0.45417619  0.39544460    -0.73500
O77         O  0.03894857  0.44989490  0.41612115    -0.73500
O78         O  0.91602185  0.45608975  0.41703939    -0.73600
Ni79       Ni  0.02454617  0.54077180  0.41686063     1.25400
Ni80       Ni  0.97579146  0.44999966  0.41651383     1.25400
C81         C  0.91848011  0.49944964  0.41695004     0.88700
C82         C  0.08179627  0.49125086  0.41689735     0.88600
C83         C  0.00128698  0.49691475  0.38871455     0.88600
C84         C  0.99901598  0.49435421  0.44462482     0.88800
O85         O  0.52862865  0.03680503  0.39465899    -0.73500
O86         O  0.52125574  0.04228037  0.43645394    -0.73500
O87         O  0.58839283  0.04091608  0.41709585    -0.73600
O88         O  0.46136522  0.03811313  0.41384057    -0.73600
O89         O  0.42003148  0.95338044  0.41520730    -0.73600
O90         O  0.54755952  0.95630162  0.41785412    -0.73500
O91         O  0.48040173  0.95754709  0.43744153    -0.73500
O92         O  0.48672702  0.95212860  0.39549541    -0.73600
Ni93       Ni  0.52636196  0.04250576  0.41549022     1.25400
Ni94       Ni  0.48225031  0.95177467  0.41653042     1.25400
C95         C  0.50878346  0.99370930  0.38814596     0.88700
C96         C  0.49939493  0.00082210  0.44383975     0.88600
C97         C  0.58916163  0.99917505  0.41781655     0.88600
C98         C  0.41980250  0.99534566  0.41414543     0.88800
O99         O  0.41638673  0.45255785  0.41764342    -0.73500
O100        O  0.54402031  0.45572847  0.41789867    -0.73500
O101        O  0.47975539  0.45390597  0.43878279    -0.73600
O102        O  0.48110628  0.45467229  0.39665505    -0.73600
O103        O  0.52208052  0.53935860  0.39687841    -0.73600
O104        O  0.51987629  0.53867261  0.43881900    -0.73500
O105        O  0.58494965  0.54038111  0.41816527    -0.73500
O106        O  0.45711849  0.53721923  0.41767234    -0.73600
Ni107      Ni  0.47884048  0.45117968  0.41772748     1.25400
Ni108      Ni  0.52247434  0.54190249  0.41786683     1.25400
C109        C  0.41557422  0.49436401  0.41773807     0.88700
C110        C  0.58560526  0.49846802  0.41819203     0.88600
C111        C  0.49943929  0.49626647  0.44572156     0.88600
C112        C  0.50189115  0.49730730  0.38980450     0.88800
O113        O  0.95826053  0.91759785  0.08348319    -0.73500
O114        O  0.95765032  0.04315409  0.08467585    -0.73500
O115        O  0.95494814  0.98063058  0.06294537    -0.73600
O116        O  0.96148120  0.98056694  0.10501332    -0.73600
O117        O  0.04613678  0.02382076  0.10384029    -0.73600
O118        O  0.03963627  0.02264959  0.06189603    -0.73500
O119        O  0.04238567  0.08602845  0.08311279    -0.73500
O120        O  0.04291966  0.95998508  0.08256626    -0.73600
Ni121      Ni  0.95506695  0.97893947  0.08405367     1.25400
Ni122      Ni  0.04578507  0.02460905  0.08281311     1.25400
C123        C  0.00059391  0.91786783  0.08297316     0.88700
C124        C  0.99984048  0.08521646  0.08407836     0.88600
C125        C  0.99635703  0.00189757  0.05546384     0.88600
C126        C  0.00494658  0.00242064  0.11137954     0.88800
O127        O  0.03621623  0.58226100  0.08208061    -0.73500
O128        O  0.03667773  0.45658625  0.08274503    -0.73500
O129        O  0.03352062  0.51687484  0.06141760    -0.73600
O130        O  0.03927976  0.52123651  0.10348786    -0.73600
O131        O  0.95456122  0.47782578  0.10451442    -0.73600
O132        O  0.94880217  0.47587657  0.06235896    -0.73500
O133        O  0.95196764  0.41383123  0.08335171    -0.73500
O134        O  0.95148893  0.53989802  0.08370019    -0.73600
Ni135      Ni  0.03940062  0.52082086  0.08239489     1.25400
Ni136      Ni  0.94864842  0.47535451  0.08349995     1.25400
C137        C  0.99385049  0.58181047  0.08289840     0.88700
C138        C  0.99453226  0.41443029  0.08320119     0.88600
C139        C  0.99031408  0.49551777  0.05492608     0.88600
C140        C  0.99787404  0.49959496  0.11096087     0.88800
O141        O  0.45168745  0.03496576  0.08416075    -0.73500
O142        O  0.45760766  0.91198095  0.08293916    -0.73500
O143        O  0.45494161  0.97164372  0.10458673    -0.73600
O144        O  0.45462822  0.97555173  0.06245474    -0.73600
O145        O  0.53957536  0.01833411  0.06240371    -0.73600
O146        O  0.53953323  0.01832455  0.10442231    -0.73500
O147        O  0.54226057  0.95688016  0.08338428    -0.73500
O148        O  0.53634541  0.08008278  0.08343783    -0.73600
Ni149      Ni  0.45168032  0.97190630  0.08353216     1.25400
Ni150      Ni  0.54243344  0.02007747  0.08341249     1.25400
C151        C  0.49303822  0.07792535  0.08389119     0.88700
C152        C  0.50082119  0.91397402  0.08310248     0.88600
C153        C  0.49739690  0.99446751  0.11146820     0.88600
C154        C  0.49715062  0.99716640  0.05553595     0.88800
O155        O  0.54158184  0.57998716  0.08291815    -0.73500
O156        O  0.53484321  0.45076491  0.08420189    -0.73500
O157        O  0.53473291  0.51193357  0.06249855    -0.73600
O158        O  0.54133937  0.51851043  0.10460470    -0.73600
O159        O  0.45665900  0.47631093  0.10567813    -0.73600
O160        O  0.45030965  0.47682842  0.06365040    -0.73500
O161        O  0.45007782  0.41150587  0.08415965    -0.73500
O162        O  0.45712743  0.54112450  0.08530138    -0.73600
Ni163      Ni  0.54116153  0.51667138  0.08350437     1.25400
Ni164      Ni  0.45049926  0.47499142  0.08472138     1.25400
C165        C  0.50047718  0.58179332  0.08417830     0.88700
C166        C  0.49147862  0.40985531  0.08434216     0.88600
C167        C  0.49147491  0.49427540  0.05615620     0.88600
C168        C  0.49998606  0.49806830  0.11211148     0.88800
O169        O  0.95307237  0.91963158  0.91698775    -0.73500
O170        O  0.07800941  0.04711603  0.91611740    -0.73500
O171        O  0.01631544  0.98487303  0.93769419    -0.73600
O172        O  0.01479015  0.98187616  0.89560937    -0.73600
O173        O  0.97308061  0.02495992  0.89545074    -0.73600
O174        O  0.97087417  0.02411866  0.93751963    -0.73500
O175        O  0.03425266  0.08820824  0.91671480    -0.73500
O176        O  0.90965928  0.96088848  0.91627212    -0.73600
Ni177      Ni  0.01712914  0.98191057  0.91663419     1.25400
Ni178      Ni  0.97041258  0.02598993  0.91648664     1.25400
C179        C  0.91062575  0.91916991  0.91656358     0.88700
C180        C  0.07664226  0.08862594  0.91630049     0.88600
C181        C  0.99347419  0.00461385  0.94457366     0.88600
C182        C  0.99400730  0.00330031  0.88857911     0.88800
O183        O  0.08363121  0.53416314  0.91694013    -0.73500
O184        O  0.95698198  0.40835929  0.91591441    -0.73500
O185        O  0.02364098  0.47180957  0.89537405    -0.73600
O186        O  0.01676512  0.47046414  0.93748021    -0.73600
O187        O  0.97384461  0.51227010  0.93662058    -0.73600
O188        O  0.98253756  0.51547442  0.89462380    -0.73500
O189        O  0.91522532  0.45136027  0.91455086    -0.73500
O190        O  0.04137764  0.57678708  0.91665548    -0.73600
Ni191      Ni  0.02181220  0.46969498  0.91646078     1.25400
Ni192      Ni  0.97682469  0.51553435  0.91557931     1.25400
C193        C  0.08326720  0.57619300  0.91701739     0.88700
C194        C  0.91528999  0.40924487  0.91499503     0.88600
C195        C  0.00398625  0.49376173  0.88805315     0.88600
C196        C  0.99365234  0.49059393  0.94400363     0.88800
O197        O  0.45413631  0.91214886  0.91791077    -0.73500
O198        O  0.58017405  0.03755656  0.91545726    -0.73500
O199        O  0.52116969  0.97839352  0.93771382    -0.73600
O200        O  0.51316384  0.97135198  0.89562573    -0.73600
O201        O  0.47374580  0.01670614  0.89574765    -0.73600
O202        O  0.47621755  0.01829622  0.93788697    -0.73500
O203        O  0.53846802  0.08051287  0.91637250    -0.73500
O204        O  0.41182821  0.95454190  0.91729923    -0.73600
Ni205      Ni  0.51866031  0.97336049  0.91666683     1.25400
Ni206      Ni  0.47357528  0.01907526  0.91683139     1.25400
C207        C  0.41206439  0.91246785  0.91788231     0.88700
C208        C  0.58033937  0.07982106  0.91565921     0.88600
C209        C  0.49934655  0.99888221  0.94471707     0.88600
C210        C  0.49253957  0.99324864  0.88874317     0.81600
O211        O  0.53385890  0.58914228  0.91772332    -0.73500
O212        O  0.40785402  0.46279501  0.91683184    -0.73500
O213        O  0.46852538  0.52476940  0.93835595    -0.73600
O214        O  0.47212177  0.52635139  0.89625679    -0.73600
O215        O  0.51454014  0.48381661  0.89649376    -0.73600
O216        O  0.51345950  0.48480602  0.93857825    -0.73500
O217        O  0.45065963  0.42088262  0.91748337    -0.73500
O218        O  0.57661481  0.54698751  0.91734630    -0.73600
Ni219      Ni  0.46914924  0.52737389  0.91729306     1.25400
Ni220      Ni  0.51527505  0.48256060  0.91751975     1.25400
C221        C  0.57594861  0.58880378  0.91746438     0.88700
C222        C  0.40844133  0.42088841  0.91693738     0.88600
C223        C  0.49064653  0.50470364  0.94536851     0.88600
C224        C  0.49346460  0.50493618  0.88948198     0.88800
O225        O  0.08160949  0.04245967  0.58358283    -0.73500
O226        O  0.95772061  0.04753324  0.58208131    -0.73500
O227        O  0.01717249  0.04423508  0.60387952    -0.73600
O228        O  0.02302285  0.04646344  0.56191029    -0.73600
O229        O  0.97569307  0.96176815  0.56146458    -0.73600
O230        O  0.97416028  0.95957153  0.60359005    -0.73500
O231        O  0.91335814  0.96290790  0.58235249    -0.73500
O232        O  0.03659695  0.95783126  0.58248443    -0.73600
Ni233      Ni  0.02145539  0.04821715  0.58289719     1.25400
Ni234      Ni  0.97338148  0.95751257  0.58248952     1.25400
C235        C  0.07946433  0.99921909  0.58302985     0.88700
C236        C  0.91491727  0.00580103  0.58189213     0.88600
C237        C  0.99531324  0.00162502  0.61071469     0.88600
C238        C  0.99994998  0.00458145  0.55480263     0.88800
O239        O  0.98765254  0.46483455  0.60424275    -0.73500
O240        O  0.98314978  0.46121271  0.56235859    -0.73500
O241        O  0.04863840  0.46342786  0.58269898    -0.73600
O242        O  0.92234675  0.46291531  0.58385402    -0.73600
O243        O  0.96436974  0.54764290  0.58329975    -0.73600
O244        O  0.09073022  0.54821086  0.58215770    -0.73500
O245        O  0.02469011  0.54599764  0.56168599    -0.73500
O246        O  0.03024729  0.54963373  0.60378043    -0.73600
Ni247      Ni  0.98397896  0.46011499  0.58331759     1.25400
Ni248      Ni  0.02904480  0.55093866  0.58270600     1.25400
C249        C  0.00942974  0.50762301  0.61093492     0.88700
C250        C  0.00308240  0.50291000  0.55510721     0.88600
C251        C  0.09052146  0.50591167  0.58226818     0.88600
C252        C  0.92246354  0.50518571  0.58370676     0.88800
O253        O  0.44849330  0.03430172  0.58260324    -0.73500
O254        O  0.57803038  0.04187342  0.58306376    -0.73500
O255        O  0.51494925  0.04113343  0.56185097    -0.73600
O256        O  0.51065065  0.03449654  0.60395516    -0.73600
O257        O  0.47418300  0.95006997  0.60288485    -0.73600
O258        O  0.47491809  0.95649134  0.56087143    -0.73500
O259        O  0.53966295  0.95738814  0.58128228    -0.73500
O260        O  0.40948800  0.94965367  0.58216105    -0.73600
Ni261      Ni  0.51445678  0.04094476  0.58293720     1.25400
Ni262      Ni  0.47320206  0.95035924  0.58180074     1.25400
C263        C  0.40764720  0.99095031  0.58216623     0.88700
C264        C  0.58026141  0.00099487  0.58192824     0.88600
C265        C  0.49489516  0.99976074  0.55441713     0.88600
C266        C  0.49181374  0.99117782  0.61037337     0.88800
O267        O  0.41802139  0.45544870  0.58459888    -0.73500
O268        O  0.54407409  0.45488993  0.58387320    -0.73500
O269        O  0.48186161  0.45491476  0.60525665    -0.73600
O270        O  0.47988442  0.45502049  0.56330324    -0.73600
O271        O  0.52391439  0.53975375  0.56321649    -0.73600
O272        O  0.52341083  0.53961230  0.60526229    -0.73500
O273        O  0.58652621  0.53965731  0.58434037    -0.73500
O274        O  0.46093871  0.54017834  0.58412069    -0.73600
Ni275      Ni  0.47945167  0.45203032  0.58426895     1.25400
Ni276      Ni  0.52521047  0.54281251  0.58424270     1.25400
C277        C  0.41873467  0.49801160  0.58426874     0.88700
C278        C  0.58611663  0.49729187  0.58406708     0.88600
C279        C  0.50286126  0.49722314  0.61221618     0.88600
C280        C  0.50144883  0.49730586  0.55632250     0.88800
O281        O  0.07904442  0.03928336  0.74925664    -0.73500
O282        O  0.95208684  0.91397394  0.75028407    -0.73500
O283        O  0.01466643  0.97556565  0.72872769    -0.73600
O284        O  0.01684958  0.97801569  0.77081127    -0.73600
O285        O  0.97241493  0.01838731  0.77080727    -0.73600
O286        O  0.97527074  0.02083482  0.72872607    -0.73500
O287        O  0.91034957  0.95698677  0.74942645    -0.73500
O288        O  0.03714448  0.08222002  0.75019909    -0.73600
Ni289      Ni  0.01710374  0.97510968  0.74976844     1.25400
Ni290      Ni  0.97229474  0.02113006  0.74977668     1.25400
C291        C  0.07890745  0.08138131  0.74971362     0.88700
C292        C  0.91025911  0.91478095  0.75000886     0.88600
C293        C  0.99540217  0.99856496  0.72175011     0.88600
C294        C  0.99471267  0.99832096  0.77775130     0.88800
O295        O  0.08572701  0.53558409  0.74932605    -0.73500
O296        O  0.95989261  0.40898820  0.74871643    -0.73500
O297        O  0.02343566  0.47389484  0.72806224    -0.73600
O298        O  0.02240493  0.47041222  0.77005459    -0.73600
O299        O  0.97911180  0.51194170  0.77051606    -0.73600
O300        O  0.98217846  0.51749695  0.72843416    -0.73500
O301        O  0.91732935  0.45114784  0.74881537    -0.73500
O302        O  0.04281729  0.57747257  0.75019310    -0.73600
Ni303      Ni  0.02435958  0.47069809  0.74902727     1.25400
Ni304      Ni  0.97870761  0.51589526  0.74949871     1.25400
C305        C  0.08495061  0.57739211  0.74992786     0.88700
C306        C  0.91771935  0.40911065  0.74863854     0.88600
C307        C  0.00364307  0.49681000  0.72133629     0.88600
C308        C  0.00091179  0.49087515  0.77722108     0.88800
O309        O  0.41454013  0.95247162  0.74939792    -0.73500
O310        O  0.54052856  0.07893807  0.74922474    -0.73500
O311        O  0.47723815  0.01452553  0.72822120    -0.73600
O312        O  0.47695268  0.01628541  0.77031739    -0.73600
O313        O  0.52082640  0.97547007  0.77068994    -0.73600
O314        O  0.51928931  0.97178538  0.72844463    -0.73500
O315        O  0.58320274  0.03673473  0.74898433    -0.73500
O316        O  0.45743612  0.91061480  0.75008734    -0.73600
Ni317      Ni  0.47591142  0.01715261  0.74926975     1.25400
Ni318      Ni  0.52177566  0.97221112  0.74956692     1.25400
C319        C  0.41524566  0.91064259  0.74987821     0.88700
C320        C  0.58260412  0.07860616  0.74903250     0.88600
C321        C  0.49753952  0.99220211  0.72136728     0.88600
C322        C  0.49831971  0.99575816  0.77749737     0.88800
O323        O  0.51418690  0.47835763  0.77204729    -0.73500
O324        O  0.51675208  0.47752118  0.73005303    -0.73500
O325        O  0.57785232  0.54175353  0.75111679    -0.73600
O326        O  0.45314667  0.41431317  0.75086518    -0.73600
O327        O  0.40948827  0.45531798  0.75012308    -0.73600
O328        O  0.53414573  0.58281748  0.75090343    -0.73500
O329        O  0.47378779  0.51927788  0.72951012    -0.73500
O330        O  0.46989183  0.51873883  0.77155341    -0.73600
Ni331      Ni  0.51704764  0.47654798  0.75105575     1.25400
Ni332      Ni  0.47026146  0.52049813  0.75051048     1.25400
C333        C  0.49169572  0.49872518  0.77876812     0.88700
C334        C  0.49559664  0.49815212  0.72282657     0.88600
C335        C  0.57662718  0.58335184  0.75108107     0.88600
C336        C  0.41066022  0.41369441  0.75027804     0.88800
C337        C  0.68441289  0.21423644  0.75708863    -0.27300
C338        C  0.72507072  0.21931920  0.74837430     0.06300
C339        C  0.71823665  0.17750460  0.73989847     0.26000
C340        C  0.67193670  0.13171458  0.74029229    -0.11800
C341        C  0.63124967  0.12708287  0.74882965    -0.25700
C342        C  0.63774351  0.16879837  0.75720505     0.36800
C343        C  0.77441122  0.26797552  0.74828867     0.06300
F344        F  0.75579293  0.18123429  0.73093182    -0.19500
H345        H  0.66748708  0.10007309  0.73366872     0.16200
F346        F  0.59955546  0.16508716  0.76588149    -0.23200
H347        H  0.68895808  0.24533477  0.76397757     0.18000
C348        C  0.77604453  0.31496720  0.74698869     0.26000
C349        C  0.82264179  0.36044599  0.74710705    -0.11700
C350        C  0.86873030  0.36024813  0.74840924    -0.25800
C351        C  0.86707530  0.31313340  0.74959882     0.36900
C352        C  0.82039958  0.26769506  0.74963472    -0.27400
F353        F  0.73267418  0.31702171  0.74527266    -0.19500
H354        H  0.82252792  0.39591190  0.74607959     0.16200
F355        F  0.91035266  0.31066589  0.75088751    -0.23200
H356        H  0.82023057  0.23215903  0.75090868     0.18000
C357        C  0.18196976  0.71590211  0.75657255    -0.27300
C358        C  0.22550787  0.71971374  0.74990887     0.06300
C359        C  0.22264949  0.67632772  0.74340474     0.26000
C360        C  0.17697322  0.62999681  0.74362599    -0.11800
C361        C  0.13327541  0.62625582  0.75016941    -0.25700
C362        C  0.13615589  0.66970235  0.75668089     0.36800
C363        C  0.27389709  0.76877525  0.74995710     0.06300
F364        F  0.26367326  0.67906618  0.73650494    -0.19500
H365        H  0.17551768  0.59720167  0.73840904     0.16200
F366        F  0.09510326  0.66732239  0.76346010    -0.23200
H367        H  0.18363488  0.74869512  0.76185756     0.18000
C368        C  0.27581197  0.81363351  0.74506541     0.26000
C369        C  0.32180680  0.85968629  0.74519220    -0.11700
C370        C  0.36671538  0.86179010  0.75010319    -0.25800
C371        C  0.36461506  0.81684843  0.75508921     0.36900
C372        C  0.31857002  0.77090964  0.75502512    -0.27400
F373        F  0.23351321  0.81269728  0.73979938    -0.19500
H374        H  0.32240868  0.89360186  0.74120976     0.16200
F375        F  0.40673205  0.81729932  0.76030250    -0.23200
H376        H  0.31767331  0.73692534  0.75908217     0.18000
C377        C  0.81081387  0.77690730  0.75687271    -0.27300
C378        C  0.76704060  0.77446909  0.75085274     0.06300
C379        C  0.77059588  0.81878438  0.74478214     0.26000
C380        C  0.81717297  0.86432418  0.74465521    -0.11800
C381        C  0.86115933  0.86646240  0.75040643    -0.25700
C382        C  0.85748361  0.82224993  0.75659570     0.36800
C383        C  0.71812601  0.72557444  0.75087101     0.06300
F384        F  0.72944669  0.81776981  0.73857227    -0.19500
H385        H  0.81901756  0.89777525  0.73978962     0.16200
F386        F  0.89865182  0.82299726  0.76269584    -0.23200
H387        H  0.80879574  0.74361486  0.76190687     0.18000
C388        C  0.71603439  0.68045681  0.74612100     0.26000
C389        C  0.67002052  0.63445793  0.74634653    -0.11700
C390        C  0.62500392  0.63248566  0.75112283    -0.25800
C391        C  0.62699379  0.67767042  0.75581476     0.36900
C392        C  0.67320905  0.72362446  0.75574904    -0.27400
F393        F  0.75824393  0.68098721  0.74089567    -0.19500
H394        H  0.66951206  0.60042227  0.74253751     0.16200
F395        F  0.58463346  0.67740391  0.76078041    -0.23200
H396        H  0.67401042  0.75766362  0.75969020     0.18000
C397        C  0.18004986  0.21697181  0.75773684    -0.27300
C398        C  0.22029948  0.22259628  0.74875946     0.06300
C399        C  0.21377654  0.18107613  0.74021415     0.26000
C400        C  0.16790751  0.13488944  0.74076244    -0.11800
C401        C  0.12755750  0.12968934  0.74957874    -0.25700
C402        C  0.13392561  0.17112456  0.75807228     0.36800
C403        C  0.26911288  0.27146004  0.74864754     0.06300
F404        F  0.25119780  0.18554089  0.73105473    -0.19500
H405        H  0.16345962  0.10347058  0.73402848     0.16200
F406        F  0.09609489  0.16681705  0.76702612    -0.23200
H407        H  0.18455632  0.24800737  0.76465477     0.18000
C408        C  0.26995304  0.31796270  0.74709891     0.26000
C409        C  0.31601531  0.36386163  0.74765311    -0.11700
C410        C  0.36226041  0.36445504  0.74967117    -0.25800
C411        C  0.36138840  0.31774017  0.75098378     0.36900
C412        C  0.31522518  0.27187752  0.75053410    -0.27400
F413        F  0.22630405  0.31905597  0.74481213    -0.19500
H414        H  0.31537366  0.39900737  0.74643370     0.16200
F415        F  0.40489203  0.31607548  0.75288330    -0.23200
H416        H  0.31545271  0.23657444  0.75193215     0.18000
C417        C  0.52808771  0.54110293  0.65191793    -0.27300
C418        C  0.50073354  0.49483304  0.65944594     0.06300
C419        C  0.47470412  0.44937213  0.65145356     0.26000
C420        C  0.47590845  0.45045976  0.63610716    -0.11800
C421        C  0.50302074  0.49684383  0.62848010    -0.25700
C422        C  0.52953520  0.54230764  0.63658247     0.36800
C423        C  0.49865825  0.49470647  0.67562994     0.06300
F424        F  0.44689932  0.40416661  0.65847817    -0.19500
H425        H  0.45497937  0.41485347  0.63019514     0.16200
F426        F  0.55697935  0.58796885  0.62977244    -0.23200
H427        H  0.54857631  0.57646534  0.65797687     0.18000
C428        C  0.51492416  0.46656487  0.68395198     0.26000
C429        C  0.51381434  0.46793333  0.69928465    -0.11700
C430        C  0.49629130  0.49717809  0.70657147    -0.25800
C431        C  0.47972461  0.52511815  0.69814478     0.36900
C432        C  0.48121625  0.52394718  0.68282029    -0.27400
F433        F  0.53307667  0.43885004  0.67725620    -0.19500
H434        H  0.52680301  0.44600931  0.70545776     0.16200
F435        F  0.46258553  0.55401821  0.70462999    -0.23200
H436        H  0.46849539  0.54582974  0.67650416     0.18000
C437        C  0.52691298  0.98041093  0.68135573    -0.27300
C438        C  0.48909050  0.98569553  0.67403520     0.06300
C439        C  0.45330841  0.99155756  0.68239040     0.26000
C440        C  0.45654934  0.99383924  0.69773604    -0.11800
C441        C  0.49492326  0.98948050  0.70508798    -0.25700
C442        C  0.52988014  0.98216435  0.69672734     0.36800
C443        C  0.48803727  0.98619496  0.65772089     0.06300
F444        F  0.41466414  0.99415523  0.67572822    -0.19500
H445        H  0.42848789  0.99844868  0.70390498     0.16200
F446        F  0.56781054  0.97819030  0.70334216    -0.23200
H447        H  0.55493290  0.97594778  0.67511483     0.18000
C448        C  0.48786566  0.02643043  0.65009213     0.26000
C449        C  0.48913155  0.02770941  0.63472308    -0.11700
C450        C  0.49012772  0.98878107  0.62664033    -0.25800
C451        C  0.48981534  0.94823669  0.63426797     0.36900
C452        C  0.48914240  0.94728105  0.64966370    -0.27400
F453        F  0.48811278  0.06538605  0.65749612    -0.19500
H454        H  0.48921958  0.05927401  0.62912067     0.16200
F455        F  0.49165146  0.91030023  0.62689107    -0.23200
H456        H  0.48946747  0.91603314  0.65533239     0.18000
C457        C  0.68616148  0.45899099  0.57816175    -0.27300
C458        C  0.72944293  0.50059749  0.58429697     0.06300
C459        C  0.72505576  0.54095713  0.59030712     0.26000
C460        C  0.67839921  0.53962223  0.59008379    -0.11800
C461        C  0.63503436  0.49779706  0.58409423    -0.25700
C462        C  0.63926312  0.45727931  0.57815272     0.36800
C463        C  0.77895521  0.50183880  0.58428984     0.06300
F464        F  0.76552151  0.58113978  0.59673751    -0.19500
H465        H  0.67601569  0.57108646  0.59484787     0.16200
F466        F  0.59851482  0.41666343  0.57198130    -0.23200
H467        H  0.68878284  0.42794706  0.57319314     0.18000
C468        C  0.78220545  0.45914450  0.58871420     0.26000
C469        C  0.82892935  0.46057476  0.58846159    -0.11700
C470        C  0.87346395  0.50470063  0.58398157    -0.25800
C471        C  0.87029582  0.54760227  0.57967845     0.36900
C472        C  0.82341484  0.54588863  0.57973868    -0.27400
F473        F  0.74044739  0.41637461  0.59361183    -0.19500
H474        H  0.83030042  0.42718208  0.59195857     0.16200
F475        F  0.91214586  0.59087402  0.57508541    -0.23200
H476        H  0.82177433  0.57893105  0.57602645     0.18000
C477        C  0.22922217  0.54554614  0.58768734    -0.27300
C478        C  0.23098724  0.50356261  0.58187294     0.06300
C479        C  0.18638032  0.46289145  0.57593025     0.26000
C480        C  0.14089031  0.46396829  0.57610308    -0.11800
C481        C  0.13916038  0.50590685  0.58194141    -0.25700
C482        C  0.18395281  0.54704652  0.58761498     0.36800
C483        C  0.27907501  0.50202892  0.58234038     0.06300
F484        F  0.18691265  0.42249752  0.56971343    -0.19500
H485        H  0.10703340  0.43214334  0.57150301     0.16200
F486        F  0.18371727  0.58795901  0.59355678    -0.23200
H487        H  0.26278525  0.57690978  0.59255996     0.18000
C488        C  0.32546773  0.54438893  0.57801258     0.26000
C489        C  0.37061458  0.54283508  0.57883649    -0.11700
C490        C  0.37045710  0.49889802  0.58379565    -0.25800
C491        C  0.32399789  0.45637697  0.58803830     0.36900
C492        C  0.27892066  0.45821202  0.58740605    -0.27400
F493        F  0.32708813  0.58690805  0.57264365    -0.19500
H494        H  0.40569002  0.57589424  0.57533883     0.16200
F495        F  0.32209178  0.41336359  0.59307625    -0.23200
H496        H  0.24387039  0.42548557  0.59107258     0.18000
C497        C  0.97277928  0.46773337  0.65046128    -0.27300
C498        C  0.01254567  0.50815399  0.65807836     0.06300
C499        C  0.05139578  0.54878313  0.65012458     0.26000
C500        C  0.04994760  0.54886515  0.63474777    -0.11800
C501        C  0.01021826  0.50815814  0.62713463    -0.25700
C502        C  0.97150053  0.46755810  0.63514617     0.36800
C503        C  0.01278043  0.50686486  0.67430325     0.06300
F504        F  0.09135292  0.58749142  0.65719395    -0.19500
H505        H  0.08045381  0.58024836  0.62877525     0.16200
F506        F  0.93173970  0.42819384  0.62820753    -0.23200
H507        H  0.94229124  0.43632714  0.65643380     0.18000
C508        C  0.01460323  0.54670898  0.68265325     0.26000
C509        C  0.01100879  0.54297534  0.69798086    -0.11700
C510        C  0.00628963  0.49988493  0.70517477    -0.25800
C511        C  0.00506054  0.46033835  0.69680805     0.36900
C512        C  0.00797648  0.46379674  0.68150389    -0.27400
F513        F  0.01821535  0.58839327  0.67597715    -0.19500
H514        H  0.01231432  0.57398645  0.70425528     0.16200
F515        F  0.99946660  0.41767783  0.70338412    -0.23200
H516        H  0.00622341  0.43260311  0.67521519     0.18000
C517        C  0.77390499  0.96273667  0.58102969    -0.27300
C518        C  0.77447414  0.00895129  0.57933695     0.06300
C519        C  0.82165387  0.05430053  0.57835186     0.26000
C520        C  0.86714104  0.05312348  0.57922123    -0.11800
C521        C  0.86653940  0.00678663  0.58100825    -0.25700
C522        C  0.81914147  0.96140487  0.58176334     0.36800
C523        C  0.72562877  0.00918064  0.57922242     0.06300
F524        F  0.82382618  0.09964464  0.57631645    -0.19500
H525        H  0.90289434  0.08859971  0.57842667     0.16200
F526        F  0.81609275  0.91550666  0.58337900    -0.23200
H527        H  0.73814262  0.92737598  0.58207170     0.18000
C528        C  0.68422597  0.97373492  0.57073188     0.26000
C529        C  0.63695079  0.97097296  0.57180788    -0.11700
C530        C  0.63034956  0.00423435  0.58106008    -0.25800
C531        C  0.67203017  0.04078700  0.58918066     0.36900
C532        C  0.71905813  0.04282661  0.58835964    -0.27400
F533        F  0.68959264  0.94210759  0.56127122    -0.19500
H534        H  0.60558201  0.94326122  0.56522620     0.16200
F535        F  0.66680200  0.07319831  0.59834607    -0.23200
H536        H  0.75000722  0.06985593  0.59518736     0.18000
C537        C  0.26651816  0.94643639  0.58530664    -0.27300
C538        C  0.26548135  0.99025348  0.58083589     0.06300
C539        C  0.31102250  0.03311423  0.57625116     0.26000
C540        C  0.35676415  0.03269380  0.57667531    -0.11800
C541        C  0.35814333  0.98936760  0.58145335    -0.25700
C542        C  0.31230698  0.94572713  0.58551479     0.36800
C543        C  0.21744628  0.99191914  0.58146314     0.06300
F544        F  0.31128475  0.07533703  0.57120149    -0.19500
H545        H  0.39123604  0.06643004  0.57317051     0.16200
F546        F  0.31182510  0.90297210  0.59013507    -0.23200
H547        H  0.23202823  0.91310529  0.58899423     0.18000
C548        C  0.17192341  0.95232962  0.57561947     0.26000
C549        C  0.12710740  0.95468907  0.57636974    -0.11700
C550        C  0.12693490  0.99678545  0.58276403    -0.25800
C551        C  0.17243788  0.03630634  0.58863143     0.36900
C552        C  0.21703039  0.03358102  0.58806998    -0.27400
F553        F  0.17101930  0.91210411  0.56879746    -0.19500
H554        H  0.09269394  0.92399933  0.57164843     0.16200
F555        F  0.17373178  0.07711026  0.59518934    -0.23200
H556        H  0.25131728  0.06399563  0.59292829     0.18000
C557        C  0.97188406  0.95661380  0.65047966    -0.27300
C558        C  0.99707517  0.00291411  0.65810475     0.06300
C559        C  0.02162731  0.04860358  0.65010178     0.26000
C560        C  0.02049979  0.04777140  0.63474091    -0.11800
C561        C  0.99513380  0.00143965  0.62703305    -0.25700
C562        C  0.97071038  0.95567110  0.63511196     0.36800
C563        C  0.99777727  0.00294821  0.67438043     0.06300
F564        F  0.04787791  0.09396847  0.65711710    -0.19500
H565        H  0.04003772  0.08364099  0.62887991     0.16200
F566        F  0.94563486  0.90993264  0.62824828    -0.23200
H567        H  0.95264237  0.92099287  0.65647892     0.18000
C568        C  0.98150579  0.03165517  0.68248343     0.26000
C569        C  0.98094426  0.03003608  0.69784347    -0.11700
C570        C  0.99661006  0.99985492  0.70544228    -0.25800
C571        C  0.01327799  0.97139696  0.69726782     0.36900
C572        C  0.01357232  0.97289753  0.68190291    -0.27400
F573        F  0.96469620  0.06008203  0.67555423    -0.19500
H574        H  0.96796917  0.05239761  0.70378781     0.16200
F575        F  0.02884851  0.94168005  0.70403367    -0.23200
H576        H  0.02635072  0.95059625  0.67582967     0.18000
C577        C  0.44915660  0.48977403  0.85013609    -0.27300
C578        C  0.49415068  0.50259456  0.84240003     0.06300
C579        C  0.53915536  0.51694150  0.85032652     0.26000
C580        C  0.53854009  0.51696358  0.86569609    -0.11800
C581        C  0.49357903  0.50433064  0.87334705    -0.25700
C582        C  0.44888398  0.49098529  0.86548566     0.36800
C583        C  0.49365457  0.50143575  0.82611267     0.06300
F584        F  0.58398942  0.53245519  0.84324321    -0.19500
H585        H  0.57343207  0.52799940  0.87163823     0.16200
F586        F  0.40464297  0.47757118  0.87266210    -0.23200
H587        H  0.41404262  0.47833084  0.84427457     0.18000
C588        C  0.51508025  0.47675959  0.81827266     0.26000
C589        C  0.51419758  0.47606108  0.80292041    -0.11700
C590        C  0.49143028  0.49935083  0.79505754    -0.25800
C591        C  0.46913066  0.52324059  0.80294927     0.36900
C592        C  0.47045794  0.52429017  0.81830403    -0.27400
F593        F  0.53561875  0.45205310  0.82542833    -0.19500
H594        H  0.53116248  0.45689788  0.79720081     0.16200
F595        F  0.44619185  0.54584087  0.79591949    -0.23200
H596        H  0.45363325  0.54341487  0.82412488     0.18000
C597        C  0.46391048  0.00827400  0.81696599    -0.27300
C598        C  0.49311568  0.99257948  0.82501354     0.06300
C599        C  0.52376306  0.97759274  0.81729963     0.26000
C600        C  0.52520654  0.97868051  0.80190858    -0.11800
C601        C  0.49648762  0.99501771  0.79384416    -0.25700
C602        C  0.46564593  0.00981114  0.80159374     0.36800
C603        C  0.49167868  0.99228578  0.84138436     0.06300
F604        F  0.55343838  0.96317048  0.82462641    -0.19500
H605        H  0.54935380  0.96713423  0.79630215     0.16200
F606        F  0.43654943  0.02522530  0.79438789    -0.23200
H607        H  0.43920253  0.01903271  0.82260744     0.18000
C608        C  0.49586716  0.03418999  0.84926246     0.26000
C609        C  0.49500266  0.03370760  0.86464675    -0.11700
C610        C  0.49097174  0.99202846  0.87249394    -0.25800
C611        C  0.48635212  0.94995810  0.86466832     0.36900
C612        C  0.48627767  0.95002139  0.84927613    -0.27400
F613        F  0.50259932  0.07639908  0.84212292    -0.19500
H614        H  0.49896483  0.06668233  0.87045379     0.16200
F615        F  0.48080215  0.90832763  0.87188711    -0.23200
H616        H  0.48172383  0.91677157  0.84350228     0.18000
C617        C  0.77933181  0.31044552  0.90611391    -0.27300
C618        C  0.77231467  0.26955403  0.91499642     0.06300
C619        C  0.81301684  0.27484572  0.92370017     0.26000
C620        C  0.85979353  0.32006318  0.92339785    -0.11800
C621        C  0.86648598  0.36106973  0.91467275    -0.25700
C622        C  0.82586934  0.35598244  0.90600997     0.36800
C623        C  0.72292776  0.22127197  0.91496244     0.06300
F624        F  0.80713287  0.23683588  0.93281303    -0.19500
H625        H  0.89046946  0.32353474  0.93028913     0.16200
F626        F  0.83159238  0.39453929  0.89716240    -0.23200
H627        H  0.74887078  0.30690884  0.89911942     0.18000
C628        C  0.67673277  0.22097098  0.91679050     0.26000
C629        C  0.63057172  0.17497317  0.91687328    -0.11700
C630        C  0.62951239  0.12838423  0.91517262    -0.25800
C631        C  0.67590356  0.12893217  0.91320036     0.36900
C632        C  0.72190952  0.17490865  0.91306603    -0.27400
F633        F  0.67625954  0.26500166  0.91891061    -0.19500
H634        H  0.59567314  0.17588670  0.91845520     0.16200
F635        F  0.67715861  0.08520650  0.91134259    -0.23200
H636        H  0.75693051  0.17429669  0.91137721     0.18000
C637        C  0.22003650  0.67818786  0.91027281    -0.27300
C638        C  0.22340286  0.71902423  0.91849662     0.06300
C639        C  0.18019131  0.71210555  0.92627874     0.26000
C640        C  0.13469749  0.66563182  0.92564340    -0.11800
C641        C  0.13168399  0.62482969  0.91756808    -0.25700
C642        C  0.17486141  0.63131964  0.90994156     0.36800
C643        C  0.27168523  0.76868084  0.91872838     0.06300
F644        F  0.18216431  0.74979680  0.93478742    -0.19500
H645        H  0.10193891  0.66119577  0.93170495     0.16200
F646        F  0.17289598  0.59298037  0.90175023    -0.23200
H647        H  0.25224852  0.68275323  0.90390145     0.18000
C648        C  0.31881791  0.77099157  0.92061078     0.26000
C649        C  0.36401317  0.81778158  0.92038267    -0.11700
C650        C  0.36338336  0.86342792  0.91843187    -0.25800
C651        C  0.31611771  0.86119239  0.91683257     0.36900
C652        C  0.27095333  0.81427553  0.91684810    -0.27400
F653        F  0.32129451  0.72811373  0.92294570    -0.19500
H654        H  0.39959872  0.81815181  0.92179560     0.16200
F655        F  0.31327000  0.90409082  0.91503884    -0.23200
H656        H  0.23534385  0.81361055  0.91514627     0.18000
C657        C  0.04123092  0.48690412  0.84856030    -0.27300
C658        C  0.00494257  0.49339110  0.84075230     0.06300
C659        C  0.96808385  0.49897516  0.84861554     0.26000
C660        C  0.96857014  0.49958765  0.86395531    -0.11800
C661        C  0.00501603  0.49351926  0.87179960    -0.25700
C662        C  0.04126099  0.48674082  0.86395446     0.36800
C663        C  0.00512025  0.49347697  0.82445320     0.06300
F664        F  0.93056562  0.50228605  0.84148968    -0.19500
H665        H  0.93964042  0.50382757  0.86971347     0.16200
F666        F  0.07733180  0.48102697  0.87110348    -0.23200
H667        H  0.06991540  0.48247924  0.84271870     0.18000
C668        C  0.00191895  0.53157150  0.81651671     0.26000
C669        C  0.99978019  0.52993731  0.80117836    -0.11700
C670        C  0.00208713  0.49111636  0.79344492    -0.25800
C671        C  0.00671817  0.45376943  0.80134925     0.36900
C672        C  0.00797304  0.45492305  0.81672034    -0.27400
F673        F  0.00213990  0.57111397  0.82356222    -0.19500
H674        H  0.99736378  0.55972231  0.79532533     0.16200
F675        F  0.00875728  0.41544472  0.79427077    -0.23200
H676        H  0.01037705  0.42519277  0.82260850     0.18000
C677        C  0.81391048  0.77749907  0.91700713    -0.27300
C678        C  0.76780046  0.77773039  0.91602279     0.06300
C679        C  0.76923654  0.82468114  0.91506641     0.26000
C680        C  0.81569027  0.87017494  0.91529930    -0.11800
C681        C  0.86189615  0.87011340  0.91633989    -0.25700
C682        C  0.86052192  0.82304437  0.91706328     0.36800
C683        C  0.71845619  0.72915965  0.91625840     0.06300
F684        F  0.72576696  0.82670217  0.91359991    -0.19500
H685        H  0.81533470  0.90560696  0.91457104     0.16200
F686        F  0.90398192  0.82073211  0.91791194    -0.23200
H687        H  0.81388653  0.74192213  0.91795117     0.18000
C688        C  0.71085106  0.68742471  0.90761650     0.26000
C689        C  0.66452219  0.64171764  0.90820793    -0.11700
C690        C  0.62458784  0.63716316  0.91710569    -0.25800
C691        C  0.63177072  0.67885930  0.92559314     0.36900
C692        C  0.67851134  0.72415833  0.92530207    -0.27400
F693        F  0.74762108  0.69115181  0.89830940    -0.19500
H694        H  0.65942407  0.61010182  0.90145900     0.16200
F695        F  0.59420713  0.67527249  0.93452825    -0.23200
H696        H  0.68366696  0.75522125  0.93230491     0.18000
C697        C  0.17579027  0.22593935  0.92337599    -0.27300
C698        C  0.21677678  0.23117986  0.91482524     0.06300
C699        C  0.21102228  0.18924229  0.90665462     0.26000
C700        C  0.16548060  0.14279537  0.90731869    -0.11800
C701        C  0.12461499  0.13766512  0.91587041    -0.25700
C702        C  0.12993852  0.17975981  0.92382214     0.36800
C703        C  0.26585824  0.27977909  0.91493146     0.06300
F704        F  0.24907200  0.19343841  0.89782046    -0.19500
H705        H  0.16179972  0.11098885  0.90093606     0.16200
F706        F  0.09147885  0.17576050  0.93242875    -0.23200
H707        H  0.17962189  0.25740933  0.92995460     0.18000
C708        C  0.26761293  0.32653015  0.91286762     0.26000
C709        C  0.31400961  0.37209850  0.91357272    -0.11700
C710        C  0.35964159  0.37205600  0.91627586    -0.25800
C711        C  0.35781456  0.32509473  0.91817310     0.36900
C712        C  0.31135130  0.27960363  0.91755658    -0.27400
F713        F  0.22460674  0.32816044  0.90991111    -0.19500
H714        H  0.31414767  0.40746918  0.91189787     0.16200
F715        F  0.40065359  0.32285854  0.92083464    -0.23200
H716        H  0.31082477  0.24410847  0.91939087     0.18000
C717        C  0.98663655  0.03650594  0.84879677    -0.27300
C718        C  0.99347523  0.99991442  0.84129882     0.06300
C719        C  0.00083506  0.96475134  0.84945306     0.26000
C720        C  0.00133473  0.96637179  0.86480813    -0.11800
C721        C  0.99400548  0.00266745  0.87232580    -0.25700
C722        C  0.98663318  0.03784853  0.86415282     0.36800
C723        C  0.99342229  0.99903930  0.82500968     0.06300
F724        F  0.00628129  0.92801930  0.84259353    -0.19500
H725        H  0.00668386  0.93860438  0.87082765     0.16200
F726        F  0.98052176  0.07427450  0.87094586    -0.23200
H727        H  0.98186809  0.06455432  0.84273294     0.18000
C728        C  0.95465028  0.00067522  0.81699929     0.26000
C729        C  0.95554099  0.00075557  0.80163792    -0.11700
C730        C  0.99463965  0.99852386  0.79398727    -0.25800
C731        C  0.03331110  0.99666156  0.80199827     0.36900
C732        C  0.03273671  0.99721335  0.81736132    -0.27400
F733        F  0.91526377  0.00099782  0.82401296    -0.19500
H734        H  0.92511835  0.00175245  0.79571407     0.16200
F735        F  0.07244115  0.99574131  0.79501893    -0.23200
H736        H  0.06347732  0.99690219  0.82330350     0.18000
C737        C  0.53425001  0.52153986  0.98482296    -0.27300
C738        C  0.48783316  0.50000803  0.99255047     0.06300
C739        C  0.44227207  0.48161888  0.98449199     0.26000
C740        C  0.44355987  0.48454963  0.96911984    -0.11800
C741        C  0.48986484  0.50438317  0.96152614    -0.25700
C742        C  0.53528219  0.52297004  0.96946798     0.36800
C743        C  0.48751822  0.49693299  0.00890931     0.06300
F744        F  0.39641664  0.45915684  0.99139237    -0.19500
H745        H  0.40809015  0.46974411  0.96308128     0.16200
F746        F  0.58069851  0.54348338  0.96235716    -0.23200
H747        H  0.57009601  0.53753741  0.99070271     0.18000
C748        C  0.51907567  0.48234388  0.01629746     0.26000
C749        C  0.52038795  0.48195513  0.03165723    -0.11700
C750        C  0.48918895  0.49436902  0.03996856    -0.25800
C751        C  0.45664012  0.50762398  0.03268515     0.36900
C752        C  0.45644137  0.50957740  0.01731430    -0.27400
F753        F  0.54791635  0.46741219  0.00869674    -0.19500
H754        H  0.54529728  0.47099376  0.03710759     0.16200
F755        F  0.42654875  0.52062365  0.04043754    -0.23200
H756        H  0.43253068  0.52201296  0.01198189     0.18000
C757        C  0.54953836  0.82023216  0.08293581    -0.27300
C758        C  0.50385926  0.77348288  0.08338872     0.06300
C759        C  0.45743201  0.77329711  0.08359753     0.26000
C760        C  0.45689454  0.81901438  0.08344042    -0.11800
C761        C  0.50254076  0.86596701  0.08305907    -0.25700
C762        C  0.54908737  0.86607822  0.08275539     0.36800
C763        C  0.50467991  0.72507071  0.08380899     0.06300
F764        F  0.41245155  0.72883661  0.08367414    -0.19500
H765        H  0.42046685  0.81750268  0.08362516     0.16200
F766        F  0.59426215  0.91028241  0.08233142    -0.23200
H767        H  0.58575185  0.82127335  0.08292032     0.18000
C768        C  0.53382928  0.71526162  0.07365450     0.26000
C769        C  0.53327077  0.66891137  0.07403596    -0.11700
C770        C  0.50294871  0.63141260  0.08433181    -0.25800
C771        C  0.47436992  0.64136197  0.09458681     0.36900
C772        C  0.47559992  0.68796056  0.09438249    -0.27400
F773        F  0.56132499  0.74964697  0.06303988    -0.19500
H774        H  0.55530396  0.66166381  0.06600988     0.16200
F775        F  0.44613794  0.60642367  0.10500002    -0.23200
H776        H  0.45381327  0.69512271  0.10251287     0.18000
C777        C  0.44504928  0.17169834  0.08780358    -0.27300
C778        C  0.48866085  0.21781104  0.08407085     0.06300
C779        C  0.53339639  0.21739421  0.08020483     0.26000
C780        C  0.53446802  0.17192066  0.08025845    -0.11800
C781        C  0.49092925  0.12572204  0.08400025    -0.25700
C782        C  0.44592896  0.12603771  0.08772241     0.36800
C783        C  0.48783381  0.26633025  0.08449863     0.06300
F784        F  0.57590505  0.26085116  0.07606422    -0.19500
H785        H  0.56945869  0.17288491  0.07718601     0.16200
F786        F  0.40297939  0.08252910  0.09156686    -0.23200
H787        H  0.41036711  0.17111357  0.09102882     0.18000
C788        C  0.44848724  0.27088296  0.07778542     0.26000
C789        C  0.44923774  0.31738690  0.07802217    -0.11700
C790        C  0.48951017  0.36023516  0.08474514    -0.25800
C791        C  0.52829528  0.35540599  0.09167459     0.36900
C792        C  0.52715390  0.30885475  0.09162161    -0.27400
F793        F  0.41030927  0.23098227  0.07054744    -0.19500
H794        H  0.41905372  0.32027384  0.07258799     0.16200
F795        F  0.56689835  0.39543594  0.09875561    -0.23200
H796        H  0.55711897  0.30600149  0.09720513     0.18000
C797        C  0.54435694  0.01245120  0.98410775    -0.27300
C798        C  0.49922695  0.99843361  0.99197948     0.06300
C799        C  0.45435196  0.98491938  0.98403269     0.26000
C800        C  0.45512612  0.98629288  0.96867249    -0.11800
C801        C  0.49994809  0.99935086  0.96090628    -0.25700
C802        C  0.54461963  0.01207868  0.96872305     0.36800
C803        C  0.49911969  0.99824944  0.00836803     0.06300
F804        F  0.40932943  0.96882852  0.99106097    -0.19500
H805        H  0.42008712  0.97566407  0.96277902     0.16200
F806        F  0.58876084  0.02555159  0.96148228    -0.23200
H807        H  0.57984675  0.02429334  0.98987839     0.18000
C808        C  0.52558570  0.97891771  0.01636789     0.26000
C809        C  0.52534415  0.97943390  0.03174027    -0.11700
C810        C  0.49751303  0.99753262  0.03940019    -0.25800
C811        C  0.47069062  0.01634094  0.03155036     0.36900
C812        C  0.47229765  0.01750982  0.01618788    -0.27400
F813        F  0.55041065  0.95811650  0.00938611    -0.19500
H814        H  0.54598934  0.96444779  0.03771940     0.16200
F815        F  0.44427849  0.03497919  0.03876363    -0.23200
H816        H  0.45275373  0.03401765  0.01038947     0.18000
C817        C  0.99552035  0.45459396  0.98390712    -0.27300
C818        C  0.98452174  0.48857507  0.99130091     0.06300
C819        C  0.97556510  0.52248100  0.98305806     0.26000
C820        C  0.97799906  0.52247592  0.96769268    -0.11800
C821        C  0.98981280  0.48901592  0.96026570    -0.25700
C822        C  0.99807582  0.45460330  0.96855548     0.36800
C823        C  0.98513740  0.48999528  0.00759024     0.06300
F824        F  0.96650964  0.55699325  0.98986223    -0.19500
H825        H  0.97171379  0.54952565  0.96161642     0.16200
F826        F  0.00813150  0.42057307  0.96187869    -0.23200
H827        H  0.00224094  0.42798505  0.99007320     0.18000
C828        C  0.94362417  0.48562586  0.01571198     0.26000
C829        C  0.94530578  0.48708653  0.03110854    -0.11700
C830        C  0.98852315  0.49339600  0.03864479    -0.25800
C831        C  0.02984790  0.49741252  0.03045539     0.36900
C832        C  0.02792003  0.49550837  0.01511210    -0.27400
F833        F  0.90110399  0.47889494  0.00878217    -0.19500
H834        H  0.91291658  0.48369419  0.03713757     0.16200
F835        F  0.07182035  0.50216841  0.03724176    -0.23200
H836        H  0.06021875  0.49879217  0.00905002     0.18000
C837        C  0.04390402  0.81986392  0.08285278    -0.27300
C838        C  0.99719234  0.77398039  0.08297807     0.06300
C839        C  0.95183029  0.77595175  0.08320663     0.26000
C840        C  0.95342931  0.82274917  0.08323456    -0.11800
C841        C  0.00012514  0.86871609  0.08294257    -0.25700
C842        C  0.04555103  0.86672997  0.08273423     0.36800
C843        C  0.99610393  0.72444237  0.08285548     0.06300
F844        F  0.90580353  0.73267877  0.08301847    -0.19500
H845        H  0.91775794  0.82284052  0.08337945     0.16200
F846        F  0.09167092  0.90987498  0.08245283    -0.23200
H847        H  0.07943514  0.81950221  0.08296847     0.18000
C848        C  0.02773664  0.71610002  0.07325746     0.26000
C849        C  0.02712614  0.66975879  0.07345228    -0.11700
C850        C  0.99405860  0.63042759  0.08288281    -0.25800
C851        C  0.96187985  0.63823549  0.09231621     0.36900
C852        C  0.96345417  0.68506722  0.09242406    -0.27400
F853        F  0.05829154  0.75218567  0.06340781    -0.19500
H854        H  0.05180377  0.66416999  0.06599304     0.16200
F855        F  0.93020105  0.60121843  0.10177678    -0.23200
H856        H  0.93950897  0.69073981  0.10014325     0.18000
C857        C  0.96356283  0.18452901  0.09320313    -0.27300
C858        C  0.99675342  0.22491909  0.08405464     0.06300
C859        C  0.03144438  0.21920941  0.07509038     0.26000
C860        C  0.03289686  0.17394317  0.07536248    -0.11800
C861        C  0.99925176  0.13339422  0.08435463    -0.25700
C862        C  0.96453592  0.13898655  0.09331689     0.36800
C863        C  0.99564713  0.27312893  0.08404153     0.06300
F864        F  0.06294158  0.25688048  0.06577168    -0.19500
H865        H  0.05951474  0.17007918  0.06826319     0.16200
F866        F  0.93254262  0.10094746  0.10246347    -0.23200
H867        H  0.93719710  0.18848683  0.10038504     0.18000
C868        C  0.94981595  0.27336832  0.08207363     0.26000
C869        C  0.94966181  0.31935507  0.08186445    -0.11700
C870        C  0.99513831  0.36591838  0.08360666    -0.25800
C871        C  0.04089693  0.36540778  0.08577136     0.36900
C872        C  0.04093139  0.31945312  0.08598394    -0.27400
F873        F  0.90540742  0.22926828  0.07995689    -0.19500
H874        H  0.91391479  0.31847009  0.08017318     0.16200
F875        F  0.08569550  0.40912734  0.08785027    -0.23200
H876        H  0.07648644  0.32001148  0.08778172     0.18000
C877        C  0.95965183  0.01446951  0.98423000    -0.27300
C878        C  0.99443391  0.00546894  0.99190387     0.06300
C879        C  0.02847864  0.99576045  0.98397286     0.26000
C880        C  0.02782448  0.99543148  0.96861083    -0.11800
C881        C  0.99339627  0.00496217  0.96086223    -0.25700
C882        C  0.95916359  0.01450785  0.96885619     0.36800
C883        C  0.99455296  0.00556921  0.00816533     0.06300
F884        F  0.06159862  0.98544166  0.99108505    -0.19500
H885        H  0.05449066  0.98785665  0.96277922     0.16200
F886        F  0.92464936  0.02310947  0.96188418    -0.23200
H887        H  0.93305386  0.02186841  0.99017816     0.18000
C888        C  0.03950147  0.03654900  0.01597984     0.26000
C889        C  0.03957560  0.03510171  0.03131974    -0.11700
C890        C  0.99479827  0.00309732  0.03919460    -0.25800
C891        C  0.94947190  0.97287454  0.03133691     0.36900
C892        C  0.94952763  0.97426595  0.01595827    -0.27400
F893        F  0.08315963  0.06889998  0.00878333    -0.19500
H894        H  0.07485428  0.05941975  0.03703892     0.16200
F895        F  0.90533604  0.94123467  0.03842856    -0.23200
H896        H  0.91450586  0.95016510  0.01009110     0.18000
C897        C  0.49974739  0.53660939  0.48507160    -0.27300
C898        C  0.49995653  0.49682396  0.49286423     0.06300
C899        C  0.49930949  0.45651198  0.48504259     0.26000
C900        C  0.49838461  0.45620054  0.46969539    -0.11800
C901        C  0.49890100  0.49635876  0.46190923    -0.25700
C902        C  0.49957857  0.53669238  0.46973134     0.36800
C903        C  0.50029260  0.49732707  0.50911600     0.06300
F904        F  0.50094986  0.41814213  0.49222120    -0.19500
H905        H  0.49837113  0.42501466  0.46387998     0.16200
F906        F  0.49889208  0.57561595  0.46258466    -0.23200
H907        H  0.49920646  0.56750555  0.49089199     0.18000
C908        C  0.53510834  0.54097734  0.51691041     0.26000
C909        C  0.53494941  0.54082192  0.53225979    -0.11700
C910        C  0.50046184  0.49711534  0.54009966    -0.25800
C911        C  0.46539191  0.45355715  0.53227120     0.36900
C912        C  0.46530690  0.45392400  0.51693498    -0.27400
F913        F  0.57015385  0.58331567  0.50970239    -0.19500
H914        H  0.56247997  0.57477057  0.53801434     0.16200
F915        F  0.43054447  0.41085186  0.53937732    -0.23200
H916        H  0.43745366  0.42026397  0.51113361     0.18000
C917        C  0.52994047  0.04440186  0.48336255    -0.27300
C918        C  0.49051189  0.00303327  0.49089333     0.06300
C919        C  0.45237498  0.96247233  0.48276771     0.26000
C920        C  0.45551851  0.96209844  0.46745409    -0.11800
C921        C  0.49582619  0.00273718  0.45996217    -0.25700
C922        C  0.53248024  0.04455284  0.46802627     0.36800
C923        C  0.49060949  0.00190670  0.50717344     0.06300
F924        F  0.41180084  0.92348052  0.48960394    -0.19500
H925        H  0.42614876  0.93013601  0.46142967     0.16200
F926        F  0.57189823  0.08464018  0.46116261    -0.23200
H927        H  0.55965124  0.07607132  0.48938880     0.18000
C928        C  0.48416715  0.95867752  0.51474747     0.26000
C929        C  0.48551326  0.95839896  0.53007728    -0.11700
C930        C  0.49429487  0.00144401  0.53817756    -0.25800
C931        C  0.50158289  0.04505181  0.53059571     0.36900
C932        C  0.49951860  0.04505137  0.51523793    -0.27400
F933        F  0.47838208  0.91727775  0.50734327    -0.19500
H934        H  0.48048379  0.92459535  0.53560618     0.16200
F935        F  0.50980700  0.08737981  0.53796783    -0.23200
H936        H  0.50467251  0.07877047  0.50962325     0.18000
C937        C  0.96100612  0.45430496  0.48423520    -0.27300
C938        C  0.99741097  0.49760648  0.49178285     0.06300
C939        C  0.03467990  0.53916081  0.48376539     0.26000
C940        C  0.03482145  0.53766667  0.46844242    -0.11800
C941        C  0.99830635  0.49450974  0.46084076    -0.25700
C942        C  0.96133713  0.45261192  0.46888096     0.36800
C943        C  0.99730768  0.49858048  0.50801157     0.06300
F944        F  0.07185787  0.58061414  0.49075124    -0.19500
H945        H  0.06404995  0.57014030  0.46252098     0.16200
F946        F  0.92482844  0.41056532  0.46195032    -0.23200
H947        H  0.93200998  0.42195092  0.49025709     0.18000
C948        C  0.99862710  0.53943120  0.51569117     0.26000
C949        C  0.00092403  0.54084112  0.53103119    -0.11700
C950        C  0.00093555  0.50112697  0.53893227    -0.25800
C951        C  0.99845716  0.45971219  0.53124245     0.36900
C952        C  0.99677691  0.45864034  0.51590893    -0.27400
F953        F  0.99670572  0.57742877  0.50837873    -0.19500
H954        H  0.00191829  0.57261863  0.53674671     0.16200
F955        F  0.99922579  0.42100197  0.53849264    -0.23200
H956        H  0.99601338  0.42701179  0.51016604     0.18000
C957        C  0.68404913  0.45598888  0.41768815    -0.27300
C958        C  0.72963491  0.50234513  0.41935171     0.06300
C959        C  0.72747446  0.54741294  0.42071348     0.26000
C960        C  0.68064268  0.54586831  0.42028203    -0.11800
C961        C  0.63496876  0.49942971  0.41862068    -0.25700
C962        C  0.63722418  0.45428741  0.41744851     0.36800
C963        C  0.77900486  0.50316724  0.41928970     0.06300
F964        F  0.77048744  0.59286876  0.42275145    -0.19500
H965        H  0.68020873  0.58118693  0.42135679     0.16200
F966        F  0.59438285  0.40835183  0.41591705    -0.23200
H967        H  0.68465233  0.42083971  0.41634295     0.18000
C968        C  0.78528402  0.46720014  0.42742600     0.26000
C969        C  0.83063143  0.46603800  0.42647201    -0.11700
C970        C  0.87102216  0.50144609  0.41773268    -0.25800
C971        C  0.86552179  0.53836382  0.40993963     0.36900
C972        C  0.81966035  0.53875042  0.41058776    -0.27400
F973        F  0.74792364  0.43366052  0.43649156    -0.19500
H974        H  0.83452674  0.43789366  0.43277545     0.16200
F975        F  0.90372330  0.57280673  0.40127053    -0.23200
H976        H  0.81556778  0.56622409  0.40401456     0.18000
C977        C  0.31621370  0.53547029  0.42002158    -0.27300
C978        C  0.27075154  0.48888276  0.41850755     0.06300
C979        C  0.27328958  0.44415042  0.41676778     0.26000
C980        C  0.32040201  0.44628719  0.41650293    -0.11800
C981        C  0.36597375  0.49294120  0.41799734    -0.25700
C982        C  0.36329336  0.53763552  0.41986672     0.36800
C983        C  0.22118703  0.48764061  0.41849931     0.06300
F984        F  0.23022982  0.39819686  0.41561965    -0.19500
H985        H  0.32109545  0.41119559  0.41513861     0.16200
F986        F  0.40597717  0.58354710  0.42164090    -0.23200
H987        H  0.31536613  0.57055168  0.42116716     0.18000
C988        C  0.21046985  0.51494666  0.42907257     0.26000
C989        C  0.16510342  0.51618128  0.42839328    -0.11700
C990        C  0.12908461  0.48912552  0.41745846    -0.25800
C991        C  0.13886191  0.46066129  0.40714175     0.36900
C992        C  0.18484009  0.46045733  0.40756790    -0.27400
F993        F  0.24343936  0.53975675  0.44020602    -0.19500
H994        H  0.15768059  0.53767986  0.43655631     0.16200
F995        F  0.10487806  0.43478064  0.39631793    -0.23200
H996        H  0.19248047  0.43988941  0.39915825     0.18000
C997        C  0.04696982  0.03761375  0.51573316    -0.27300
C998        C  0.00175941  0.00882888  0.50780102     0.06300
C999        C  0.95594307  0.97877154  0.51546999     0.26000
C1000       C  0.95576371  0.97694259  0.53081315    -0.11800
C1001       C  0.00093796  0.00583671  0.53869121    -0.25700
C1002       C  0.04659450  0.03647032  0.53108159     0.36800
C1003       C  0.00306449  0.00872455  0.49156245     0.06300
F1004       F  0.91130549  0.95198599  0.50813378    -0.19500
H1005       H  0.92015162  0.95372645  0.53657721     0.16200
F1006       F  0.09101093  0.06386435  0.53847889    -0.23200
H1007       H  0.08277611  0.06030715  0.51001464     0.18000
C1008       C  0.02672259  0.05447710  0.48357301     0.26000
C1009       C  0.02902329  0.05360412  0.46824212    -0.11700
C1010       C  0.00774910  0.00715902  0.46059630    -0.25800
C1011       C  0.98373420  0.96136410  0.46866575     0.36900
C1012       C  0.98164272  0.96236088  0.48398229    -0.27400
F1013       F  0.04673681  0.09996473  0.49057068    -0.19500
H1014       H  0.04727922  0.08945957  0.46236069     0.16200
F1015       F  0.96218808  0.91549445  0.46184676    -0.23200
H1016       H  0.96375538  0.92670499  0.48997297     0.18000
C1017       C  0.73136671  0.04736494  0.41749472    -0.27300
C1018       C  0.73266163  0.00184134  0.41817727     0.06300
C1019       C  0.68646753  0.95548628  0.41921043     0.26000
C1020       C  0.64010037  0.95496203  0.41931749    -0.11800
C1021       C  0.63872777  0.00051516  0.41835543    -0.25700
C1022       C  0.68512381  0.04690981  0.41750215     0.36800
C1023       C  0.78229172  0.00326294  0.41781165     0.06300
F1024       F  0.68596038  0.91053463  0.41966214    -0.19500
H1025       H  0.60520031  0.91868887  0.41995725     0.16200
F1026       F  0.68617904  0.09204092  0.41651507    -0.23200
H1027       H  0.76638500  0.08357730  0.41699165     0.18000
C1028       C  0.82001658  0.03359881  0.40744508     0.26000
C1029       C  0.86713520  0.03576266  0.40747673    -0.11700
C1030       C  0.87685034  0.00670335  0.41753307    -0.25800
C1031       C  0.83920895  0.97596887  0.42777106     0.36900
C1032       C  0.79258830  0.97478615  0.42800757    -0.27400
F1033       F  0.81083281  0.05996860  0.39700682    -0.19500
H1034       H  0.89556393  0.05901798  0.39937093     0.16200
F1035       F  0.84806904  0.94810659  0.43777980    -0.23200
H1036       H  0.76467789  0.95195544  0.43627182     0.18000
C1037       C  0.23352544  0.04690499  0.41417117    -0.27300
C1038       C  0.23157388  0.99968395  0.41356835     0.06300
C1039       C  0.18379069  0.95496047  0.41364408     0.26000
C1040       C  0.13919143  0.95760687  0.41438741    -0.11800
C1041       C  0.14096878  0.00479408  0.41497727    -0.25700
C1042       C  0.18885184  0.04962487  0.41478659     0.36800
C1043       C  0.27934630  0.99733498  0.41320603     0.06300
F1044       F  0.18002307  0.90856770  0.41269184    -0.19500
H1045       H  0.10310099  0.92239830  0.41441436     0.16200
F1046       F  0.19281440  0.09616180  0.41522774    -0.23200
H1047       H  0.26981289  0.08189182  0.41436888     0.18000
C1048       C  0.31982968  0.02915057  0.40378437     0.26000
C1049       C  0.36543089  0.02821385  0.40410813    -0.11700
C1050       C  0.37099430  0.99467216  0.41350517    -0.25800
C1051       C  0.33025651  0.96192564  0.42263231     0.36900
C1052       C  0.28514665  0.96375947  0.42259529    -0.27400
F1053       F  0.31507593  0.06054877  0.39409782    -0.19500
H1054       H  0.39631909  0.05335858  0.39688755     0.16200
F1055       F  0.33488294  0.92979307  0.43206334    -0.23200
H1056       H  0.25505798  0.93958503  0.43016105     0.18000
C1057       C  0.54780496  0.53176214  0.15142278    -0.27300
C1058       C  0.50301677  0.50190471  0.15951406     0.06300
C1059       C  0.45753518  0.47069612  0.15189635     0.26000
C1060       C  0.45702789  0.46976801  0.13653911    -0.11800
C1061       C  0.50181762  0.49948388  0.12841038    -0.25700
C1062       C  0.54746110  0.53045067  0.13604553     0.36800
C1063       C  0.50386196  0.50373560  0.17583653     0.06300
F1064       F  0.41370024  0.44015992  0.15928245    -0.19500
H1065       H  0.42139334  0.44527045  0.13101024     0.16200
F1066       F  0.59166236  0.56017074  0.12872516    -0.23200
H1067       H  0.58313618  0.55675437  0.15702274     0.18000
C1068       C  0.54184640  0.50049755  0.18382597     0.26000
C1069       C  0.54228780  0.50251756  0.19918403    -0.11700
C1070       C  0.50440677  0.50675363  0.20686871    -0.25800
C1071       C  0.46633688  0.50983947  0.19892182     0.36900
C1072       C  0.46646894  0.50884411  0.18355517    -0.27400
F1073       F  0.57767650  0.49386975  0.17682847    -0.19500
H1074       H  0.57168454  0.49959156  0.20510215     0.16200
F1075       F  0.42977629  0.51514806  0.20597493    -0.23200
H1076       H  0.43747573  0.51252356  0.17766445     0.18000
C1077       C  0.54921533  0.53780866  0.31884217    -0.27300
C1078       C  0.50589852  0.50062247  0.32625802     0.06300
C1079       C  0.46298213  0.46657732  0.31810429     0.26000
C1080       C  0.46354574  0.46990070  0.30278019    -0.11800
C1081       C  0.50694371  0.50695367  0.29529948    -0.25700
C1082       C  0.55000632  0.54090924  0.30349949     0.36800
C1083       C  0.50502899  0.49923138  0.34250479     0.06300
F1084       F  0.42001148  0.43108475  0.32497138    -0.19500
H1085       H  0.42992329  0.44317174  0.29675072     0.16200
F1086       F  0.59248683  0.57773496  0.29676431    -0.23200
H1087       H  0.58255836  0.56452779  0.32498149     0.18000
C1088       C  0.49272904  0.45441158  0.35023249     0.26000
C1089       C  0.49148438  0.45392284  0.36560862    -0.11700
C1090       C  0.50278677  0.49813257  0.37352712    -0.25800
C1091       C  0.51526529  0.54300753  0.36570965     0.36900
C1092       C  0.51642554  0.54336776  0.35036843    -0.27400
F1093       F  0.48310009  0.41150573  0.34292862    -0.19500
H1094       H  0.48222648  0.41899513  0.37132122     0.16200
F1095       F  0.52555406  0.58644354  0.37281599    -0.23200
H1096       H  0.52562577  0.57815178  0.34457315     0.18000
C1097       C  0.47454296  0.69621983  0.25786784    -0.27300
C1098       C  0.50888362  0.73536944  0.24853747     0.06300
C1099       C  0.54331896  0.72753499  0.24007618     0.26000
C1100       C  0.54334091  0.68157071  0.24105877    -0.11800
C1101       C  0.50835989  0.64229556  0.25019520    -0.25700
C1102       C  0.47379206  0.64989803  0.25857597     0.36800
C1103       C  0.50904133  0.78433867  0.24796857     0.06300
F1104       F  0.57597003  0.76367052  0.23056181    -0.19500
H1105       H  0.56987795  0.67614597  0.23438574     0.16200
F1106       F  0.44022508  0.61307021  0.26776152    -0.23200
H1107       H  0.44852995  0.70168216  0.26476728     0.18000
C1108       C  0.46323902  0.78527868  0.24697589     0.26000
C1109       C  0.46364561  0.83148197  0.24726817    -0.11700
C1110       C  0.50966047  0.87781308  0.24840417    -0.25800
C1111       C  0.55564448  0.87690210  0.24900741     0.36900
C1112       C  0.55511613  0.83060560  0.24889965    -0.27400
F1113       F  0.41800746  0.74155068  0.24552825    -0.19500
H1114       H  0.42773090  0.83085282  0.24659256     0.16200
F1115       F  0.60122771  0.92052173  0.24990211    -0.23200
H1116       H  0.59083189  0.83094833  0.24985502     0.18000
C1117       C  0.54132268  0.22922083  0.24356580    -0.27300
C1118       C  0.50514990  0.23356259  0.25217563     0.06300
C1119       C  0.46935010  0.19102188  0.26027014     0.26000
C1120       C  0.46969300  0.14515354  0.25960391    -0.11800
C1121       C  0.50631163  0.14119812  0.25113816    -0.25700
C1122       C  0.54232344  0.18373190  0.24315231     0.36800
C1123       C  0.50466504  0.28223987  0.25243257     0.06300
F1124       F  0.43487601  0.19411069  0.26910956    -0.19500
H1125       H  0.44194336  0.11294036  0.26595628     0.16200
F1126       F  0.57750232  0.18089048  0.23457682    -0.23200
H1127       H  0.56854257  0.26098454  0.23697640     0.18000
C1128       C  0.55001644  0.32889609  0.25422493     0.26000
C1129       C  0.54942252  0.37458926  0.25387188    -0.11700
C1130       C  0.50364484  0.37491101  0.25185019    -0.25800
C1131       C  0.45808995  0.32810073  0.25029116     0.36900
C1132       C  0.45882208  0.28240664  0.25050022    -0.27400
F1133       F  0.59490954  0.33038055  0.25657797    -0.19500
H1134       H  0.58500108  0.40980417  0.25526937     0.16200
F1135       F  0.41282504  0.32621220  0.24836392    -0.23200
H1136       H  0.42351772  0.24708128  0.24888795     0.18000
C1137       C  0.45594051  0.96296015  0.15136870    -0.27300
C1138       C  0.50107453  0.99626572  0.15876625     0.06300
C1139       C  0.54513531  0.02755599  0.15055954     0.26000
C1140       C  0.54362511  0.02624420  0.13522348    -0.11800
C1141       C  0.49821433  0.99381901  0.12774725    -0.25700
C1142       C  0.45433413  0.96161608  0.13600518     0.36800
C1143       C  0.50186108  0.99900480  0.17500576     0.06300
F1144       F  0.58925674  0.06069805  0.15735779    -0.19500
H1145       H  0.57800848  0.05143042  0.12920126     0.16200
F1146       F  0.40994647  0.92861481  0.12931186    -0.23200
H1147       H  0.42183227  0.93787006  0.15752294     0.18000
C1148       C  0.46549217  0.00598707  0.18267083     0.26000
C1149       C  0.46715653  0.00948653  0.19799565    -0.11700
C1150       C  0.50549285  0.00688464  0.20586850    -0.25800
C1151       C  0.54174948  0.99970331  0.19822854     0.36900
C1152       C  0.53969835  0.99556156  0.18292474    -0.27400
F1153       F  0.42924747  0.01084394  0.17532055    -0.19500
H1154       H  0.43893858  0.01504485  0.20371141     0.16200
F1155       F  0.57808575  0.99497016  0.20557928    -0.23200
H1156       H  0.56749260  0.98927635  0.17723821     0.18000
C1157       C  0.46635677  0.98376677  0.31771739    -0.27300
C1158       C  0.51190168  0.99579744  0.32483504     0.06300
C1159       C  0.55631131  0.01141762  0.31653536     0.26000
C1160       C  0.55513798  0.01537791  0.30126604    -0.11800
C1161       C  0.50964224  0.00376617  0.29404980    -0.25700
C1162       C  0.46508048  0.98786223  0.30245349     0.36800
C1163       C  0.51318936  0.99424678  0.34098433     0.06300
F1164       F  0.60060568  0.02227399  0.32320656    -0.19500
H1165       H  0.58981574  0.02711526  0.29508471     0.16200
F1166       F  0.42048526  0.97718327  0.29601925    -0.23200
H1167       H  0.43197550  0.97218579  0.32404686     0.18000
C1168       C  0.54328661  0.03899208  0.34893184     0.26000
C1169       C  0.54220902  0.03814796  0.36424966    -0.11700
C1170       C  0.51122485  0.99264350  0.37192414    -0.25800
C1171       C  0.48187511  0.94748267  0.36389381     0.36900
C1172       C  0.48266015  0.94855590  0.34852155    -0.27400
F1173       F  0.57227836  0.08387670  0.34185894    -0.19500
H1174       H  0.56528749  0.07345441  0.37009598     0.16200
F1175       F  0.45148147  0.90261968  0.37080717    -0.23200
H1176       H  0.45922554  0.91379145  0.34246635     0.18000
C1177       C  0.96638182  0.46039808  0.18266781    -0.27300
C1178       C  0.00800888  0.49759298  0.17462546     0.06300
C1179       C  0.05019080  0.53544665  0.18233966     0.26000
C1180       C  0.05047812  0.53576096  0.19773028    -0.11800
C1181       C  0.00837977  0.49916963  0.20574828    -0.25700
C1182       C  0.96630378  0.46121035  0.19804235     0.36800
C1183       C  0.00580671  0.49775885  0.15828112     0.06300
F1184       F  0.09015926  0.57357117  0.17505767    -0.19500
H1185       H  0.08310127  0.56569868  0.20337917     0.16200
F1186       F  0.92519771  0.42452134  0.20532778    -0.23200
H1187       H  0.93364466  0.43062868  0.17701239     0.18000
C1188       C  0.04705039  0.50430411  0.14955262     0.26000
C1189       C  0.04441792  0.50561496  0.13420730    -0.11700
C1190       C  0.00026613  0.49916002  0.12722973    -0.25800
C1191       C  0.95857015  0.49135880  0.13594794     0.36900
C1192       C  0.96159338  0.49105825  0.15128517    -0.27400
F1193       F  0.08928631  0.50780166  0.15579442    -0.19500
H1194       H  0.07665046  0.51061161  0.12776196     0.16200
F1195       F  0.91515874  0.48499651  0.12970858    -0.23200
H1196       H  0.92938026  0.48611375  0.15773049     0.18000
C1197       C  0.04714600  0.51343212  0.31765540    -0.27300
C1198       C  0.00304870  0.50439044  0.32523058     0.06300
C1199       C  0.96099429  0.49879184  0.31721613     0.26000
C1200       C  0.96288213  0.50114685  0.30185770    -0.11800
C1201       C  0.00686378  0.50971249  0.29424106    -0.25700
C1202       C  0.04921919  0.51612503  0.30231810     0.36800
C1203       C  0.00194150  0.50195080  0.34148212     0.06300
F1204       F  0.91858288  0.49221676  0.32423809    -0.19500
H1205       H  0.92992651  0.49656990  0.29591099     0.16200
F1206       F  0.09209025  0.52339240  0.29542944    -0.23200
H1207       H  0.07990053  0.51772454  0.32365620     0.18000
C1208       C  0.96296451  0.46010914  0.34903547     0.26000
C1209       C  0.96323199  0.45834055  0.36440589    -0.11700
C1210       C  0.00208294  0.49833373  0.37247301    -0.25800
C1211       C  0.04129201  0.53990491  0.36486114     0.36900
C1212       C  0.04114311  0.54146068  0.34952769    -0.27400
F1213       F  0.92533089  0.42049178  0.34155709    -0.19500
H1214       H  0.93270275  0.42584893  0.37001204     0.16200
F1215       F  0.08035776  0.57867017  0.37219240    -0.23200
H1216       H  0.07167061  0.57386681  0.34388972     0.18000
C1217       C  0.96892481  0.68891297  0.25612178    -0.27300
C1218       C  0.00488999  0.73015938  0.24769905     0.06300
C1219       C  0.04082675  0.72423924  0.23937707     0.26000
C1220       C  0.04121464  0.67836653  0.23976611    -0.11800
C1221       C  0.00512366  0.63724593  0.24814892    -0.25700
C1222       C  0.96864550  0.64272841  0.25625109     0.36800
C1223       C  0.00561272  0.77948281  0.24800020     0.06300
F1224       F  0.07498243  0.76244264  0.23065544    -0.19500
H1225       H  0.06929465  0.67468393  0.23333141     0.16200
F1226       F  0.93398779  0.60410859  0.26476126    -0.23200
H1227       H  0.94156303  0.69274117  0.26286138     0.18000
C1228       C  0.96050841  0.78153418  0.24651795     0.26000
C1229       C  0.96178038  0.82819693  0.24712360    -0.11700
C1230       C  0.00798822  0.87387491  0.24912832    -0.25800
C1231       C  0.05313100  0.87172617  0.25058052     0.36900
C1232       C  0.05172784  0.82502036  0.25009281    -0.27400
F1233       F  0.91527149  0.73857719  0.24415209    -0.19500
H1234       H  0.92647574  0.82850253  0.24587492     0.16200
F1235       F  0.09874981  0.91455139  0.25260599    -0.23200
H1236       H  0.08681450  0.82442922  0.25155307     0.18000
C1237       C  0.04691536  0.22912507  0.24405514    -0.27300
C1238       C  0.01387755  0.23458541  0.25379868     0.06300
C1239       C  0.98011084  0.19256401  0.26246133     0.26000
C1240       C  0.97867509  0.14600469  0.26104701    -0.11800
C1241       C  0.01181901  0.14087428  0.25134681    -0.25700
C1242       C  0.04647925  0.18297853  0.24298110     0.36800
C1243       C  0.01317846  0.28321299  0.25429661     0.06300
F1244       F  0.94921257  0.19670509  0.27250827    -0.19500
H1245       H  0.95241379  0.11414510  0.26780307     0.16200
F1246       F  0.07873190  0.17899940  0.23341414    -0.23200
H1247       H  0.07250176  0.26036923  0.23701888     0.18000
C1248       C  0.05860943  0.33050278  0.25435970     0.26000
C1249       C  0.05712092  0.37577405  0.25368149    -0.11700
C1250       C  0.01042219  0.37501846  0.25309253    -0.25800
C1251       C  0.96498046  0.32768798  0.25360947     0.36900
C1252       C  0.96654342  0.28250331  0.25404083    -0.27400
F1253       F  0.10451248  0.33308629  0.25519650    -0.19500
H1254       H  0.09273693  0.41150176  0.25355202     0.16200
F1255       F  0.91881611  0.32467383  0.25349914    -0.23200
H1256       H  0.93098459  0.24674561  0.25380207     0.18000
C1257       C  0.05493288  0.02014215  0.15047241    -0.27300
C1258       C  0.01011788  0.00360571  0.15865738     0.06300
C1259       C  0.96395766  0.98746228  0.15122711     0.26000
C1260       C  0.96265217  0.98690210  0.13589082    -0.11800
C1261       C  0.00736652  0.00306203  0.12763785    -0.25700
C1262       C  0.05377647  0.01999921  0.13510944     0.36800
C1263       C  0.01187042  0.00421271  0.17491306     0.06300
F1264       F  0.92029199  0.97360713  0.15878285    -0.19500
H1265       H  0.92654509  0.97437772  0.13048358     0.16200
F1266       F  0.09803068  0.03600478  0.12765227    -0.23200
H1267       H  0.09087339  0.03278831  0.15600326     0.18000
C1268       C  0.97750461  0.96130009  0.18310521     0.26000
C1269       C  0.97749528  0.96336830  0.19843089    -0.11700
C1270       C  0.01269633  0.00759529  0.20582832    -0.25800
C1271       C  0.04841947  0.04986457  0.19770987     0.36900
C1272       C  0.04769538  0.04822097  0.18234651    -0.27400
F1273       F  0.94462669  0.91707704  0.17630745    -0.19500
H1274       H  0.95051771  0.93006177  0.20455409     0.16200
F1275       F  0.08271255  0.09325862  0.20460381    -0.23200
H1276       H  0.07448737  0.08164559  0.17623731     0.18000
C1277       C  0.04833332  0.02248382  0.31770982    -0.27300
C1278       C  0.00216113  0.00710571  0.32502908     0.06300
C1279       C  0.95774571  0.99183889  0.31678604     0.26000
C1280       C  0.95965761  0.99136369  0.30143967    -0.11800
C1281       C  0.00590112  0.00650434  0.29406647    -0.25700
C1282       C  0.05040305  0.02230871  0.30239530     0.36800
C1283       C  0.00130631  0.00751621  0.34125351     0.06300
F1284       F  0.91286688  0.97866136  0.32354193    -0.19500
H1285       H  0.92492673  0.97966383  0.29533000     0.16200
F1286       F  0.09593020  0.03714794  0.29582700    -0.23200
H1287       H  0.08291412  0.03421962  0.32390871     0.18000
C1288       C  0.96784738  0.96375033  0.34925589     0.26000
C1289       C  0.96999971  0.96397455  0.36459903    -0.11700
C1290       C  0.00538115  0.00780560  0.37220018    -0.25800
C1291       C  0.03851643  0.05175469  0.36413499     0.36900
C1292       C  0.03640119  0.05139067  0.34881640    -0.27400
F1293       F  0.93436813  0.92027222  0.34224361    -0.19500
H1294       H  0.94399266  0.92971620  0.37052829     0.16200
F1295       F  0.07383860  0.09477161  0.37096441    -0.23200
H1296       H  0.06253052  0.08541866  0.34280664     0.18000
loop_ 
_geom_bond_atom_site_label_1 
_geom_bond_atom_site_label_2 
_geom_bond_distance 
_geom_bond_site_symmetry_2 
_ccdc_geom_bond_type 
O1           Ni9   1.918       .  S
O1           C11   1.282   1_655  A
O2           Ni9   1.920   1_545  S
O2           C12   1.282   1_655  A
O3           Ni9   1.912       .  S
O3           C13   1.281   1_665  A
O4           Ni9   1.909       .  S
O4           C14   1.280   1_665  A
O5          Ni10   1.913       .  S
O5           C14   1.281       .  A
O6          Ni10   1.911       .  S
O6           C13   1.280       .  A
O7          Ni10   1.914       .  S
O7           C12   1.280       .  A
O8          Ni10   1.917   1_565  S
O8           C11   1.282       .  A
Ni9         Ni10   2.389   1_665  S
C11        C1230   1.485       .  S
C12        C1241   1.472       .  S
C13        C1270   1.467       .  S
C14        C1281   1.478       .  S
O15         Ni23   1.918       .  S
O15          C25   1.282       .  A
O16         Ni23   1.919       .  S
O16          C26   1.281       .  A
O17         Ni23   1.917       .  S
O17          C27   1.282       .  A
O18         Ni23   1.917       .  S
O18          C28   1.282       .  A
O19         Ni24   1.917       .  S
O19          C28   1.282   1_655  A
O20         Ni24   1.912       .  S
O20          C27   1.280   1_655  A
O21         Ni24   1.916       .  S
O21          C26   1.281   1_655  A
O22         Ni24   1.914       .  S
O22          C25   1.281   1_655  A
Ni23        Ni24   2.387   1_455  S
C25        C1250   1.485       .  S
C26        C1221   1.475       .  S
C27        C1201   1.478       .  S
C28        C1181   1.481       .  S
O29         Ni37   1.917   1_545  S
O29          C39   1.281       .  A
O30         Ni37   1.918       .  S
O30          C40   1.283       .  A
O31         Ni37   1.909       .  S
O31          C41   1.280   1_565  A
O32         Ni37   1.912       .  S
O32          C42   1.280   1_565  A
O33         Ni38   1.911       .  S
O33          C42   1.280       .  A
O34         Ni38   1.914       .  S
O34          C41   1.282       .  A
O35         Ni38   1.911   1_565  S
O35          C40   1.280       .  A
O36         Ni38   1.917       .  S
O36          C39   1.281       .  A
Ni37        Ni38   2.388   1_565  S
C39        C1121   1.475       .  S
C40        C1110   1.483       .  S
C41        C1161   1.477       .  S
C42        C1150   1.469       .  S
O43         Ni51   1.915       .  S
O43          C53   1.281       .  A
O44         Ni51   1.912       .  S
O44          C54   1.281       .  A
O45         Ni51   1.915       .  S
O45          C55   1.281       .  A
O46         Ni51   1.917       .  S
O46          C56   1.281       .  A
O47         Ni52   1.914       .  S
O47          C56   1.282       .  A
O48         Ni52   1.917       .  S
O48          C55   1.281       .  A
O49         Ni52   1.917       .  S
O49          C54   1.281       .  A
O50         Ni52   1.914       .  S
O50          C53   1.281       .  A
Ni51        Ni52   2.387       .  S
C53        C1070   1.474       .  S
C54        C1081   1.478       .  S
C55        C1101   1.473       .  S
C56        C1130   1.483       .  S
O57         Ni65   1.906       .  S
O57          C67   1.279       .  A
O58         Ni65   1.912       .  S
O58          C68   1.281       .  A
O59         Ni65   1.923       .  S
O59          C69   1.283       .  A
O60         Ni65   1.921   1_655  S
O60          C70   1.282       .  A
O61         Ni66   1.909       .  S
O61          C70   1.279   1_565  A
O62         Ni66   1.912   1_455  S
O62          C69   1.281   1_565  A
O63         Ni66   1.911       .  S
O63          C68   1.281   1_665  A
O64         Ni66   1.915       .  S
O64          C67   1.282   1_665  A
Ni65        Ni66   2.387   1_445  S
C67        C1290   1.476       .  S
C68        C1010   1.480       .  S
C69        C1041   1.486       .  S
C70        C1030   1.468       .  S
O71         Ni79   1.918   1_655  S
O71          C81   1.281       .  A
O72         Ni79   1.915       .  S
O72          C82   1.280       .  A
O73         Ni79   1.909       .  S
O73          C83   1.280       .  A
O74         Ni79   1.906       .  S
O74          C84   1.280   1_455  A
O75         Ni80   1.917       .  S
O75          C84   1.282       .  A
O76         Ni80   1.918       .  S
O76          C83   1.282   1_655  A
O77         Ni80   1.918   1_455  S
O77          C82   1.281       .  A
O78         Ni80   1.913       .  S
O78          C81   1.281       .  A
Ni79        Ni80   2.389   1_455  S
C81         C970   1.473       .  S
C82         C990   1.469       .  S
C83        C1210   1.477       .  S
C84         C941   1.474       .  S
O85         Ni93   1.906       .  S
O85          C95   1.280   1_545  A
O86         Ni93   1.911       .  S
O86          C96   1.280       .  A
O87         Ni93   1.913       .  S
O87          C97   1.281   1_545  A
O88         Ni93   1.915       .  S
O88          C98   1.281   1_545  A
O89         Ni94   1.917       .  S
O89          C98   1.281       .  A
O90         Ni94   1.921       .  S
O90          C97   1.283       .  A
O91         Ni94   1.912       .  S
O91          C96   1.281   1_565  A
O92         Ni94   1.916       .  S
O92          C95   1.281       .  A
Ni93        Ni94   2.388   1_545  S
C95        C1170   1.477       .  S
C96         C921   1.472       .  S
C97        C1021   1.485   1_565  S
C98        C1050   1.472       .  S
O99        Ni107   1.916       .  S
O99         C109   1.282       .  A
O100       Ni107   1.912       .  S
O100        C110   1.281       .  A
O101       Ni107   1.915       .  S
O101        C111   1.281       .  A
O102       Ni107   1.917       .  S
O102        C112   1.282       .  A
O103       Ni108   1.909       .  S
O103        C112   1.280       .  A
O104       Ni108   1.906       .  S
O104        C111   1.279       .  A
O105       Ni108   1.919       .  S
O105        C110   1.282       .  A
O106       Ni108   1.916       .  S
O106        C109   1.282       .  A
Ni107      Ni108   2.386       .  S
C109        C981   1.484       .  S
C110        C961   1.484       .  S
C111        C901   1.471       .  S
C112       C1090   1.480       .  S
O113       Ni121   1.913       .  S
O113        C123   1.281   1_655  A
O114       Ni121   1.912   1_545  S
O114        C124   1.280       .  A
O115       Ni121   1.919       .  S
O115        C125   1.282   1_565  A
O116       Ni121   1.914       .  S
O116        C126   1.282   1_665  A
O117       Ni122   1.912       .  S
O117        C126   1.280       .  A
O118       Ni122   1.909       .  S
O118        C125   1.280   1_455  A
O119       Ni122   1.918       .  S
O119        C124   1.282   1_455  A
O120       Ni122   1.920   1_565  S
O120        C123   1.282       .  A
Ni121      Ni122   2.387   1_665  S
C123        C841   1.485       .  S
C124        C861   1.472       .  S
C125        C890   1.481       .  S
C126       C1261   1.479       .  S
O127       Ni135   1.915       .  S
O127        C137   1.281   1_455  A
O128       Ni135   1.910       .  S
O128        C138   1.280   1_455  A
O129       Ni135   1.914       .  S
O129        C139   1.281   1_455  A
O130       Ni135   1.917       .  S
O130        C140   1.282   1_455  A
O131       Ni136   1.917       .  S
O131        C140   1.281       .  A
O132       Ni136   1.922       .  S
O132        C139   1.282       .  A
O133       Ni136   1.920       .  S
O133        C138   1.282       .  A
O134       Ni136   1.918       .  S
O134        C137   1.281       .  A
Ni135      Ni136   2.387   1_455  S
C137        C850   1.473       .  S
C138        C870   1.482       .  S
C139        C830   1.481       .  S
C140       C1190   1.481   1_655  S
O141       Ni149   1.915   1_545  S
O141        C151   1.281       .  A
O142       Ni149   1.916       .  S
O142        C152   1.282       .  A
O143       Ni149   1.917       .  S
O143        C153   1.281       .  A
O144       Ni149   1.918       .  S
O144        C154   1.281       .  A
O145       Ni150   1.911       .  S
O145        C154   1.279   1_545  A
O146       Ni150   1.911       .  S
O146        C153   1.281   1_545  A
O147       Ni150   1.916   1_565  S
O147        C152   1.281       .  A
O148       Ni150   1.921       .  S
O148        C151   1.283       .  A
Ni149      Ni150   2.387   1_565  S
C151        C781   1.484       .  S
C152        C761   1.484       .  S
C153       C1141   1.480       .  S
C154        C810   1.467       .  S
O155       Ni163   1.916       .  S
O155        C165   1.280       .  A
O156       Ni163   1.913       .  S
O156        C166   1.281       .  A
O157       Ni163   1.918       .  S
O157        C167   1.281       .  A
O158       Ni163   1.919       .  S
O158        C168   1.282       .  A
O159       Ni164   1.913       .  S
O159        C168   1.281       .  A
O160       Ni164   1.916       .  S
O160        C167   1.281       .  A
O161       Ni164   1.921       .  S
O161        C166   1.282       .  A
O162       Ni164   1.916       .  S
O162        C165   1.281       .  A
Ni163      Ni164   2.387       .  S
C165        C770   1.470       .  S
C166        C790   1.478       .  S
C167        C750   1.473       .  S
C168       C1061   1.482       .  S
O169       Ni177   1.918   1_655  S
O169        C179   1.282       .  A
O170       Ni177   1.918   1_545  S
O170        C180   1.281       .  A
O171       Ni177   1.917       .  S
O171        C181   1.282   1_465  A
O172       Ni177   1.912       .  S
O172        C182   1.281   1_465  A
O173       Ni178   1.914       .  S
O173        C182   1.281       .  A
O174       Ni178   1.913       .  S
O174        C181   1.280       .  A
O175       Ni178   1.914   1_455  S
O175        C180   1.280       .  A
O176       Ni178   1.914   1_565  S
O176        C179   1.282       .  A
Ni177      Ni178   2.387   1_465  S
C179        C681   1.484       .  S
C180        C701   1.473       .  S
C181        C881   1.481       .  S
C182        C721   1.477       .  S
O183       Ni191   1.919       .  S
O183        C193   1.281       .  A
O184       Ni191   1.918   1_655  S
O184        C194   1.282       .  A
O185       Ni191   1.917       .  S
O185        C195   1.281       .  A
O186       Ni191   1.917       .  S
O186        C196   1.282   1_455  A
O187       Ni192   1.915       .  S
O187        C196   1.281       .  A
O188       Ni192   1.912       .  S
O188        C195   1.281   1_655  A
O189       Ni192   1.913       .  S
O189        C194   1.280       .  A
O190       Ni192   1.914   1_455  S
O190        C193   1.281       .  A
Ni191      Ni192   2.388   1_455  S
C193        C641   1.474       .  S
C194        C621   1.472       .  S
C195        C661   1.478       .  S
C196        C821   1.481       .  S
O197       Ni205   1.913       .  S
O197        C207   1.281       .  A
O198       Ni205   1.912   1_545  S
O198        C208   1.281       .  A
O199       Ni205   1.918       .  S
O199        C209   1.281       .  A
O200       Ni205   1.918       .  S
O200        C210   1.281       .  A
O201       Ni206   1.918       .  S
O201        C210   1.281   1_545  A
O202       Ni206   1.916       .  S
O202        C209   1.281   1_545  A
O203       Ni206   1.920       .  S
O203        C208   1.283       .  A
O204       Ni206   1.919   1_565  S
O204        C207   1.282       .  A
Ni205      Ni206   2.386   1_565  S
C207        C650   1.484       .  S
C208        C630   1.484       .  S
C209        C801   1.472       .  S
C210        C610   1.478       .  S
O211       Ni219   1.922       .  S
O211        C221   1.282       .  A
O212       Ni219   1.913       .  S
O212        C222   1.281       .  A
O213       Ni219   1.916       .  S
O213        C223   1.280       .  A
O214       Ni219   1.915       .  S
O214        C224   1.281       .  A
O215       Ni220   1.912       .  S
O215        C224   1.280       .  A
O216       Ni220   1.917       .  S
O216        C223   1.281       .  A
O217       Ni220   1.918       .  S
O217        C222   1.282       .  A
O218       Ni220   1.911       .  S
O218        C221   1.280       .  A
Ni219      Ni220   2.390       .  S
C221        C690   1.473       .  S
C222        C710   1.483       .  S
C223        C741   1.469       .  S
C224        C581   1.467       .  S
O225       Ni233   1.920       .  S
O225        C235   1.282   1_545  A
O226       Ni233   1.925   1_655  S
O226        C236   1.284       .  A
O227       Ni233   1.911       .  S
O227        C237   1.281   1_455  A
O228       Ni233   1.909       .  S
O228        C238   1.279   1_455  A
O229       Ni234   1.914       .  S
O229        C238   1.280   1_565  A
O230       Ni234   1.919       .  S
O230        C237   1.282   1_565  A
O231       Ni234   1.908       .  S
O231        C236   1.280   1_565  A
O232       Ni234   1.913   1_455  S
O232        C235   1.280       .  A
Ni233      Ni234   2.387   1_445  S
C235        C550   1.479       .  S
C236        C521   1.485       .  S
C237        C561   1.483       .  S
C238       C1001   1.465   1_655  S
O239       Ni247   1.907       .  S
O239        C249   1.280   1_655  A
O240       Ni247   1.906       .  S
O240        C250   1.279   1_655  A
O241       Ni247   1.914   1_455  S
O241        C251   1.281       .  A
O242       Ni247   1.914       .  S
O242        C252   1.281       .  A
O243       Ni248   1.915   1_655  S
O243        C252   1.281       .  A
O244       Ni248   1.915       .  S
O244        C251   1.281       .  A
O245       Ni248   1.916       .  S
O245        C250   1.282       .  A
O246       Ni248   1.917       .  S
O246        C249   1.281       .  A
Ni247      Ni248   2.389   1_655  S
C249        C501   1.473       .  S
C250        C950   1.472       .  S
C251        C481   1.476       .  S
C252        C470   1.480       .  S
O253       Ni261   1.909       .  S
O253        C263   1.280   1_545  A
O254       Ni261   1.915       .  S
O254        C264   1.280       .  A
O255       Ni261   1.917       .  S
O255        C265   1.281   1_545  A
O256       Ni261   1.918       .  S
O256        C266   1.282   1_545  A
O257       Ni262   1.917       .  S
O257        C266   1.281       .  A
O258       Ni262   1.910       .  S
O258        C265   1.281       .  A
O259       Ni262   1.919       .  S
O259        C264   1.282   1_565  A
O260       Ni262   1.923       .  S
O260        C263   1.282       .  A
Ni261      Ni262   2.387   1_545  S
C263        C541   1.480       .  S
C264        C530   1.475       .  S
C265        C930   1.477   1_565  S
C266        C450   1.480       .  S
O267       Ni275   1.918       .  S
O267        C277   1.282       .  A
O268       Ni275   1.919       .  S
O268        C278   1.282       .  A
O269       Ni275   1.910       .  S
O269        C279   1.280       .  A
O270       Ni275   1.908       .  S
O270        C280   1.280       .  A
O271       Ni276   1.913       .  S
O271        C280   1.281       .  A
O272       Ni276   1.912       .  S
O272        C279   1.281       .  A
O273       Ni276   1.910       .  S
O273        C278   1.280       .  A
O274       Ni276   1.911       .  S
O274        C277   1.281       .  A
Ni275      Ni276   2.387       .  S
C277        C490   1.479       .  S
C278        C461   1.477       .  S
C279        C421   1.478       .  S
C280        C910   1.475       .  S
O281       Ni289   1.916   1_545  S
O281        C291   1.281       .  A
O282       Ni289   1.918   1_655  S
O282        C292   1.282       .  A
O283       Ni289   1.914       .  S
O283        C293   1.281   1_455  A
O284       Ni289   1.915       .  S
O284        C294   1.281   1_455  A
O285       Ni290   1.913       .  S
O285        C294   1.281   1_545  A
O286       Ni290   1.916       .  S
O286        C293   1.282   1_545  A
O287       Ni290   1.915   1_565  S
O287        C292   1.281       .  A
O288       Ni290   1.914   1_455  S
O288        C291   1.281       .  A
Ni289      Ni290   2.387   1_465  S
C291        C401   1.472       .  S
C292        C381   1.479       .  S
C293        C570   1.483       .  S
C294        C730   1.476       .  S
O295       Ni303   1.919       .  S
O295        C305   1.282       .  A
O296       Ni303   1.917   1_655  S
O296        C306   1.281       .  A
O297       Ni303   1.909       .  S
O297        C307   1.280       .  A
O298       Ni303   1.912       .  S
O298        C308   1.280       .  A
O299       Ni304   1.915       .  S
O299        C308   1.282   1_655  A
O300       Ni304   1.917       .  S
O300        C307   1.281   1_655  A
O301       Ni304   1.918       .  S
O301        C306   1.282       .  A
O302       Ni304   1.910   1_455  S
O302        C305   1.280       .  A
Ni303      Ni304   2.388   1_455  S
C305        C361   1.475       .  S
C306        C350   1.485       .  S
C307        C510   1.471       .  S
C308        C670   1.475       .  S
O309       Ni317   1.915   1_565  S
O309        C319   1.281       .  A
O310       Ni317   1.920       .  S
O310        C320   1.282       .  A
O311       Ni317   1.916       .  S
O311        C321   1.282   1_545  A
O312       Ni317   1.914       .  S
O312        C322   1.281   1_545  A
O313       Ni318   1.923       .  S
O313        C322   1.283       .  A
O314       Ni318   1.921       .  S
O314        C321   1.282       .  A
O315       Ni318   1.914   1_545  S
O315        C320   1.280       .  A
O316       Ni318   1.913       .  S
O316        C319   1.281       .  A
Ni317      Ni318   2.387   1_545  S
C319        C370   1.478       .  S
C320        C341   1.474       .  S
C321        C441   1.482       .  S
C322        C601   1.486       .  S
O323       Ni331   1.912       .  S
O323        C333   1.281       .  A
O324       Ni331   1.909       .  S
O324        C334   1.280       .  A
O325       Ni331   1.916       .  S
O325        C335   1.282       .  A
O326       Ni331   1.915       .  S
O326        C336   1.281       .  A
O327       Ni332   1.916       .  S
O327        C336   1.282       .  A
O328       Ni332   1.916       .  S
O328        C335   1.281       .  A
O329       Ni332   1.913       .  S
O329        C334   1.281       .  A
O330       Ni332   1.913       .  S
O330        C333   1.281       .  A
Ni331      Ni332   2.386       .  S
C333        C590   1.481       .  S
C334        C430   1.478       .  S
C335        C390   1.480       .  S
C336        C410   1.483       .  S
C337        C338   1.407       .  A
C337        C342   1.398       .  A
C337        H347   1.083       .  S
C338        C343   1.488       .  S
C338        C339   1.409       .  A
C339        C340   1.398       .  A
C339        F344   1.357       .  S
C340        C341   1.403       .  A
C340        H345   1.083       .  S
C341        C342   1.405       .  A
C342        F346   1.358       .  S
C343        C348   1.407       .  A
C343        C352   1.405       .  A
C348        C349   1.398       .  A
C348        F353   1.357       .  S
C349        C350   1.407       .  A
C349        H354   1.082       .  S
C350        C351   1.410       .  A
C351        C352   1.398       .  A
C351        F355   1.357       .  S
C352        H356   1.082       .  S
C357        C358   1.403       .  A
C357        C362   1.397       .  A
C357        H367   1.084       .  S
C358        C363   1.479       .  S
C358        C359   1.406       .  A
C359        C360   1.397       .  A
C359        F364   1.358       .  S
C360        C361   1.404       .  A
C360        H365   1.084       .  S
C361        C362   1.408       .  A
C362        F366   1.358       .  S
C363        C368   1.406       .  A
C363        C372   1.403       .  A
C368        C369   1.397       .  A
C368        F373   1.358       .  S
C369        C370   1.406       .  A
C369        H374   1.083       .  S
C370        C371   1.408       .  A
C371        C372   1.396       .  A
C371        F375   1.357       .  S
C372        H376   1.083       .  S
C377        C378   1.405       .  A
C377        C382   1.397       .  A
C377        H387   1.083       .  S
C378        C383   1.485       .  S
C378        C379   1.407       .  A
C379        C380   1.398       .  A
C379        F384   1.357       .  S
C380        C381   1.405       .  A
C380        H385   1.083       .  S
C381        C382   1.407       .  A
C382        F386   1.357       .  S
C383        C388   1.407       .  A
C383        C392   1.405       .  A
C388        C389   1.397       .  A
C388        F393   1.358       .  S
C389        C390   1.405       .  A
C389        H394   1.082       .  S
C390        C391   1.409       .  A
C391        C392   1.399       .  A
C391        F395   1.358       .  S
C392        H396   1.082       .  S
C397        C398   1.405       .  A
C397        C402   1.396       .  A
C397        H407   1.083       .  S
C398        C403   1.483       .  S
C398        C399   1.408       .  A
C399        C400   1.398       .  A
C399        F404   1.358       .  S
C400        C401   1.403       .  A
C400        H405   1.084       .  S
C401        C402   1.405       .  A
C402        F406   1.358       .  S
C403        C408   1.406       .  A
C403        C412   1.404       .  A
C408        C409   1.397       .  A
C408        F413   1.358       .  S
C409        C410   1.407       .  A
C409        H414   1.082       .  S
C410        C411   1.410       .  A
C411        C412   1.397       .  A
C411        F415   1.357       .  S
C412        H416   1.083       .  S
C417        C418   1.401       .  A
C417        C422   1.394       .  A
C417        H427   1.085       .  S
C418        C423   1.472       .  S
C418        C419   1.403       .  A
C419        C420   1.395       .  A
C419        F424   1.358       .  S
C420        C421   1.407       .  A
C420        H425   1.084       .  S
C421        C422   1.410       .  A
C422        F426   1.357       .  S
C423        C428   1.403       .  A
C423        C432   1.401       .  A
C428        C429   1.395       .  A
C428        F433   1.358       .  S
C429        C430   1.407       .  A
C429        H434   1.085       .  S
C430        C431   1.409       .  A
C431        C432   1.395       .  A
C431        F435   1.357       .  S
C432        H436   1.085       .  S
C437        C438   1.404       .  A
C437        C442   1.400       .  A
C437        H447   1.084       .  S
C438        C443   1.484       .  S
C438        C439   1.406       .  A
C439        C440   1.398       .  A
C439        F444   1.358       .  S
C440        C441   1.406       .  A
C440        H445   1.084       .  S
C441        C442   1.408       .  A
C442        F446   1.357       .  S
C443        C448   1.407   1_565  A
C443        C452   1.404       .  A
C448        C449   1.397       .  A
C448        F453   1.357       .  S
C449        C450   1.404   1_545  A
C449        H454   1.084       .  S
C450        C451   1.409       .  A
C451        C452   1.400       .  A
C451        F455   1.357       .  S
C452        H456   1.084       .  S
C457        C458   1.406       .  A
C457        C462   1.398       .  A
C457        H467   1.083       .  S
C458        C463   1.484       .  S
C458        C459   1.407       .  A
C459        C460   1.396       .  A
C459        F464   1.358       .  S
C460        C461   1.405       .  A
C460        H465   1.083       .  S
C461        C462   1.407       .  A
C462        F466   1.357       .  S
C463        C468   1.407       .  A
C463        C472   1.405       .  A
C468        C469   1.397       .  A
C468        F473   1.357       .  S
C469        C470   1.405       .  A
C469        H474   1.083       .  S
C470        C471   1.408       .  A
C471        C472   1.397       .  A
C471        F475   1.358       .  S
C472        H476   1.083       .  S
C477        C478   1.405       .  A
C477        C482   1.397       .  A
C477        H487   1.083       .  S
C478        C483   1.484       .  S
C478        C479   1.407       .  A
C479        C480   1.397       .  A
C479        F484   1.358       .  S
C480        C481   1.404       .  A
C480        H485   1.083       .  S
C481        C482   1.407       .  A
C482        F486   1.358       .  S
C483        C488   1.407       .  A
C483        C492   1.405       .  A
C488        C489   1.396       .  A
C488        F493   1.358       .  S
C489        C490   1.406       .  A
C489        H494   1.083       .  S
C490        C491   1.407       .  A
C491        C492   1.398       .  A
C491        F495   1.357       .  S
C492        H496   1.082       .  S
C497        C498   1.402   1_655  A
C497        C502   1.393       .  A
C497        H507   1.084       .  S
C498        C503   1.475       .  S
C498        C499   1.406       .  A
C499        C500   1.398       .  A
C499        F504   1.357       .  S
C500        C501   1.405       .  A
C500        H505   1.084       .  S
C501        C502   1.407   1_455  A
C502        F506   1.358       .  S
C503        C508   1.405       .  A
C503        C512   1.403       .  A
C508        C509   1.397       .  A
C508        F513   1.357       .  S
C509        C510   1.404       .  A
C509        H514   1.084       .  S
C510        C511   1.406       .  A
C511        C512   1.394       .  A
C511        F515   1.358   1_455  S
C512        H516   1.084       .  S
C517        C518   1.403   1_565  A
C517        C522   1.395       .  A
C517        H527   1.084       .  S
C518        C523   1.486       .  S
C518        C519   1.408       .  A
C519        C520   1.401       .  A
C519        F524   1.357       .  S
C520        C521   1.407       .  A
C520        H525   1.083       .  S
C521        C522   1.411   1_545  A
C522        F526   1.357       .  S
C523        C528   1.409   1_545  A
C523        C532   1.405       .  A
C528        C529   1.398       .  A
C528        F533   1.358       .  S
C529        C530   1.403   1_565  A
C529        H534   1.083       .  S
C530        C531   1.406       .  A
C531        C532   1.399       .  A
C531        F535   1.357       .  S
C532        H536   1.083       .  S
C537        C538   1.406       .  A
C537        C542   1.400       .  A
C537        H547   1.082       .  S
C538        C543   1.484       .  S
C538        C539   1.406   1_565  A
C539        C540   1.395       .  A
C539        F544   1.358       .  S
C540        C541   1.405   1_545  A
C540        H545   1.083       .  S
C541        C542   1.408       .  A
C542        F546   1.357       .  S
C543        C548   1.406       .  A
C543        C552   1.406   1_565  A
C548        C549   1.398       .  A
C548        F553   1.358       .  S
C549        C550   1.406       .  A
C549        H554   1.083       .  S
C550        C551   1.406   1_565  A
C551        C552   1.397       .  A
C551        F555   1.357       .  S
C552        H556   1.082       .  S
C557        C558   1.403   1_565  A
C557        C562   1.397       .  A
C557        H567   1.084       .  S
C558        C563   1.480       .  S
C558        C559   1.405   1_655  A
C559        C560   1.397       .  A
C559        F564   1.358       .  S
C560        C561   1.408   1_455  A
C560        H565   1.084       .  S
C561        C562   1.410   1_545  A
C562        F566   1.357       .  S
C563        C568   1.405       .  A
C563        C572   1.403   1_645  A
C568        C569   1.397       .  A
C568        F573   1.357       .  S
C569        C570   1.407   1_545  A
C569        H574   1.083       .  S
C570        C571   1.410   1_655  A
C571        C572   1.397       .  A
C571        F575   1.357       .  S
C572        H576   1.084       .  S
C577        C578   1.405       .  A
C577        C582   1.396       .  A
C577        H587   1.083       .  S
C578        C583   1.481       .  S
C578        C579   1.408       .  A
C579        C580   1.397       .  A
C579        F584   1.358       .  S
C580        C581   1.402       .  A
C580        H585   1.083       .  S
C581        C582   1.403       .  A
C582        F586   1.358       .  S
C583        C588   1.406       .  A
C583        C592   1.404       .  A
C588        C589   1.396       .  A
C588        F593   1.357       .  S
C589        C590   1.406       .  A
C589        H594   1.082       .  S
C590        C591   1.409       .  A
C591        C592   1.396       .  A
C591        F595   1.357       .  S
C592        H596   1.083       .  S
C597        C598   1.404   1_545  A
C597        C602   1.398       .  A
C597        H607   1.084       .  S
C598        C603   1.488       .  S
C598        C599   1.408       .  A
C599        C600   1.399       .  A
C599        F604   1.357       .  S
C600        C601   1.406       .  A
C600        H605   1.084       .  S
C601        C602   1.411   1_565  A
C602        F606   1.357       .  S
C603        C608   1.409   1_565  A
C603        C612   1.406       .  A
C608        C609   1.398       .  A
C608        F613   1.357       .  S
C609        C610   1.403   1_545  A
C609        H614   1.084       .  S
C610        C611   1.406       .  A
C611        C612   1.399       .  A
C611        F615   1.358       .  S
C612        H616   1.084       .  S
C617        C618   1.405       .  A
C617        C622   1.398       .  A
C617        H627   1.083       .  S
C618        C623   1.483       .  S
C618        C619   1.408       .  A
C619        C620   1.397       .  A
C619        F624   1.358       .  S
C620        C621   1.402       .  A
C620        H625   1.084       .  S
C621        C622   1.406       .  A
C622        F626   1.358       .  S
C623        C628   1.407       .  A
C623        C632   1.403       .  A
C628        C629   1.399       .  A
C628        F633   1.358       .  S
C629        C630   1.407       .  A
C629        H634   1.082       .  S
C630        C631   1.410       .  A
C631        C632   1.396       .  A
C631        F635   1.357       .  S
C632        H636   1.083       .  S
C637        C638   1.407       .  A
C637        C642   1.398       .  A
C637        H647   1.083       .  S
C638        C643   1.487       .  S
C638        C639   1.409       .  A
C639        C640   1.397       .  A
C639        F644   1.357       .  S
C640        C641   1.403       .  A
C640        H645   1.083       .  S
C641        C642   1.405       .  A
C642        F646   1.358       .  S
C643        C648   1.407       .  A
C643        C652   1.406       .  A
C648        C649   1.397       .  A
C648        F653   1.357       .  S
C649        C650   1.407       .  A
C649        H654   1.082       .  S
C650        C651   1.409       .  A
C651        C652   1.398       .  A
C651        F655   1.357       .  S
C652        H656   1.082       .  S
C657        C658   1.405       .  A
C657        C662   1.399       .  A
C657        H667   1.083       .  S
C658        C663   1.481       .  S
C658        C659   1.406   1_455  A
C659        C660   1.394       .  A
C659        F664   1.358       .  S
C660        C661   1.404   1_655  A
C660        H665   1.083       .  S
C661        C662   1.408       .  A
C662        F666   1.357       .  S
C663        C668   1.407       .  A
C663        C672   1.404       .  A
C668        C669   1.396   1_455  A
C668        F673   1.358       .  S
C669        C670   1.404   1_655  A
C669        H674   1.083       .  S
C670        C671   1.407       .  A
C671        C672   1.398       .  A
C671        F675   1.358       .  S
C672        H676   1.083       .  S
C677        C678   1.406       .  A
C677        C682   1.399       .  A
C677        H687   1.083       .  S
C678        C683   1.486       .  S
C678        C679   1.407       .  A
C679        C680   1.396       .  A
C679        F684   1.357       .  S
C680        C681   1.406       .  A
C680        H685   1.083       .  S
C681        C682   1.410       .  A
C682        F686   1.357       .  S
C683        C688   1.408       .  A
C683        C692   1.407       .  A
C688        C689   1.398       .  A
C688        F693   1.358       .  S
C689        C690   1.403       .  A
C689        H694   1.083       .  S
C690        C691   1.403       .  A
C691        C692   1.398       .  A
C691        F695   1.357       .  S
C692        H696   1.082       .  S
C697        C698   1.405       .  A
C697        C702   1.397       .  A
C697        H707   1.083       .  S
C698        C703   1.483       .  S
C698        C699   1.407       .  A
C699        C700   1.398       .  A
C699        F704   1.358       .  S
C700        C701   1.403       .  A
C700        H705   1.083       .  S
C701        C702   1.405       .  A
C702        F706   1.358       .  S
C703        C708   1.406       .  A
C703        C712   1.404       .  A
C708        C709   1.398       .  A
C708        F713   1.358       .  S
C709        C710   1.407       .  A
C709        H714   1.082       .  S
C710        C711   1.409       .  A
C711        C712   1.397       .  A
C711        F715   1.357       .  S
C712        H716   1.083       .  S
C717        C718   1.404   1_545  A
C717        C722   1.396       .  A
C717        H727   1.083       .  S
C718        C723   1.481       .  S
C718        C719   1.406   1_655  A
C719        C720   1.396       .  A
C719        F724   1.358       .  S
C720        C721   1.405   1_465  A
C720        H725   1.083       .  S
C721        C722   1.408       .  A
C722        F726   1.357       .  S
C723        C728   1.407   1_565  A
C723        C732   1.404   1_655  A
C728        C729   1.396       .  A
C728        F733   1.358       .  S
C729        C730   1.404   1_545  A
C729        H734   1.083       .  S
C730        C731   1.407   1_655  A
C731        C732   1.397       .  A
C731        F735   1.357       .  S
C732        H736   1.083       .  S
C737        C738   1.407       .  A
C737        C742   1.396       .  A
C737        H747   1.086       .  S
C738        C743   1.490   1_556  S
C738        C739   1.411       .  A
C739        C740   1.399       .  A
C739        F744   1.357       .  S
C740        C741   1.401       .  A
C740        H745   1.086       .  S
C741        C742   1.402       .  A
C742        F746   1.358       .  S
C743        C748   1.411       .  A
C743        C752   1.407       .  A
C748        C749   1.397       .  A
C748        F753   1.357       .  S
C749        C750   1.401       .  A
C749        H754   1.086       .  S
C750        C751   1.405       .  A
C751        C752   1.399       .  A
C751        F755   1.358       .  S
C752        H756   1.086       .  S
C757        C758   1.404       .  A
C757        C762   1.399       .  A
C757        H767   1.083       .  S
C758        C763   1.483       .  S
C758        C759   1.406       .  A
C759        C760   1.396       .  A
C759        F764   1.358       .  S
C760        C761   1.406       .  A
C760        H765   1.083       .  S
C761        C762   1.411       .  A
C762        F766   1.357       .  S
C763        C768   1.408       .  A
C763        C772   1.405       .  A
C768        C769   1.399       .  A
C768        F773   1.357       .  S
C769        C770   1.403       .  A
C769        H774   1.083       .  S
C770        C771   1.404       .  A
C771        C772   1.396       .  A
C771        F775   1.358       .  S
C772        H776   1.083       .  S
C777        C778   1.404       .  A
C777        C782   1.400       .  A
C777        H787   1.083       .  S
C778        C783   1.486       .  S
C778        C779   1.408       .  A
C779        C780   1.397       .  A
C779        F784   1.358       .  S
C780        C781   1.405       .  A
C780        H785   1.083       .  S
C781        C782   1.411       .  A
C782        F786   1.357       .  S
C783        C788   1.409       .  A
C783        C792   1.405       .  A
C788        C789   1.401       .  A
C788        F793   1.357       .  S
C789        C790   1.405       .  A
C789        H794   1.083       .  S
C790        C791   1.407       .  A
C791        C792   1.396       .  A
C791        F795   1.358       .  S
C792        H796   1.083       .  S
C797        C798   1.408   1_545  A
C797        C802   1.398       .  A
C797        H807   1.086       .  S
C798        C803   1.490   1_556  S
C798        C799   1.411       .  A
C799        C800   1.397       .  A
C799        F804   1.357       .  S
C800        C801   1.401       .  A
C800        H805   1.087       .  S
C801        C802   1.404   1_565  A
C802        F806   1.358       .  S
C803        C808   1.411       .  A
C803        C812   1.408   1_565  A
C808        C809   1.397       .  A
C808        F813   1.357       .  S
C809        C810   1.400       .  A
C809        H814   1.087       .  S
C810        C811   1.402   1_565  A
C811        C812   1.397       .  A
C811        F815   1.358       .  S
C812        H816   1.086       .  S
C817        C818   1.404       .  A
C817        C822   1.397       .  A
C817        H827   1.083   1_655  S
C818        C823   1.481   1_556  S
C818        C819   1.405       .  A
C819        C820   1.398       .  A
C819        F824   1.357       .  S
C820        C821   1.407       .  A
C820        H825   1.083       .  S
C821        C822   1.409       .  A
C822        F826   1.357   1_655  S
C823        C828   1.406       .  A
C823        C832   1.402   1_655  A
C828        C829   1.400       .  A
C828        F833   1.357       .  S
C829        C830   1.406       .  A
C829        H834   1.083       .  S
C830        C831   1.409   1_655  A
C831        C832   1.396       .  A
C831        F835   1.357       .  S
C832        H836   1.084       .  S
C837        C838   1.406   1_455  A
C837        C842   1.398       .  A
C837        H847   1.084       .  S
C838        C843   1.488       .  S
C838        C839   1.407       .  A
C839        C840   1.397       .  A
C839        F844   1.357       .  S
C840        C841   1.407   1_655  A
C840        H845   1.084       .  S
C841        C842   1.409       .  A
C842        F846   1.357       .  S
C843        C848   1.409   1_655  A
C843        C852   1.407       .  A
C848        C849   1.398       .  A
C848        F853   1.357       .  S
C849        C850   1.402   1_455  A
C849        H854   1.083       .  S
C850        C851   1.404       .  A
C851        C852   1.398       .  A
C851        F855   1.358       .  S
C852        H856   1.083       .  S
C857        C858   1.404       .  A
C857        C862   1.398       .  A
C857        H867   1.084       .  S
C858        C863   1.481       .  S
C858        C859   1.407   1_655  A
C859        C860   1.397       .  A
C859        F864   1.358       .  S
C860        C861   1.402   1_455  A
C860        H865   1.084       .  S
C861        C862   1.406       .  A
C862        F866   1.358       .  S
C863        C868   1.406       .  A
C863        C872   1.402   1_655  A
C868        C869   1.398       .  A
C868        F873   1.358       .  S
C869        C870   1.407       .  A
C869        H874   1.083       .  S
C870        C871   1.410   1_655  A
C871        C872   1.396       .  A
C871        F875   1.357       .  S
C872        H876   1.083       .  S
C877        C878   1.402       .  A
C877        C882   1.397       .  A
C877        H887   1.083       .  S
C878        C883   1.478   1_556  S
C878        C879   1.405   1_645  A
C879        C880   1.396       .  A
C879        F884   1.358       .  S
C880        C881   1.406   1_465  A
C880        H885   1.083       .  S
C881        C882   1.410       .  A
C882        F886   1.357       .  S
C883        C888   1.404   1_655  A
C883        C892   1.403   1_545  A
C888        C889   1.395       .  A
C888        F893   1.358       .  S
C889        C890   1.407   1_455  A
C889        H894   1.083       .  S
C890        C891   1.409   1_545  A
C891        C892   1.398       .  A
C891        F895   1.357       .  S
C892        H896   1.084       .  S
C897        C898   1.403       .  A
C897        C902   1.394       .  A
C897        H907   1.084       .  S
C898        C903   1.477       .  S
C898        C899   1.407       .  A
C899        C900   1.395       .  A
C899        F904   1.358       .  S
C900        C901   1.403       .  A
C900        H905   1.084       .  S
C901        C902   1.407       .  A
C902        F906   1.358       .  S
C903        C908   1.406       .  A
C903        C912   1.402       .  A
C908        C909   1.395       .  A
C908        F913   1.358       .  S
C909        C910   1.404       .  A
C909        H914   1.084       .  S
C910        C911   1.408       .  A
C911        C912   1.394       .  A
C911        F915   1.358       .  S
C912        H916   1.084       .  S
C917        C918   1.404       .  A
C917        C922   1.396       .  A
C917        H927   1.083       .  S
C918        C923   1.480       .  S
C918        C919   1.407   1_545  A
C919        C920   1.395       .  A
C919        F924   1.358       .  S
C920        C921   1.404   1_565  A
C920        H925   1.083       .  S
C921        C922   1.406       .  A
C922        F926   1.357       .  S
C923        C928   1.406   1_545  A
C923        C932   1.404       .  A
C928        C929   1.394       .  A
C928        F933   1.358       .  S
C929        C930   1.405   1_565  A
C929        H934   1.083       .  S
C930        C931   1.408       .  A
C931        C932   1.397       .  A
C931        F935   1.357       .  S
C932        H936   1.083       .  S
C937        C938   1.404       .  A
C937        C942   1.397       .  A
C937        H947   1.083       .  S
C938        C943   1.475       .  S
C938        C939   1.404   1_655  A
C939        C940   1.394       .  A
C939        F944   1.358       .  S
C940        C941   1.405   1_455  A
C940        H945   1.083       .  S
C941        C942   1.407       .  A
C942        F946   1.357       .  S
C943        C948   1.406       .  A
C943        C952   1.402       .  A
C948        C949   1.396   1_655  A
C948        F953   1.358       .  S
C949        C950   1.403       .  A
C949        H954   1.083       .  S
C950        C951   1.407   1_455  A
C951        C952   1.395       .  A
C951        F955   1.358       .  S
C952        H956   1.083       .  S
C957        C958   1.404       .  A
C957        C962   1.396       .  A
C957        H967   1.083       .  S
C958        C963   1.486       .  S
C958        C959   1.407       .  A
C959        C960   1.399       .  A
C959        F964   1.357       .  S
C960        C961   1.407       .  A
C960        H965   1.083       .  S
C961        C962   1.410       .  A
C962        F966   1.357       .  S
C963        C968   1.409       .  A
C963        C972   1.407       .  A
C968        C969   1.396       .  A
C968        F973   1.358       .  S
C969        C970   1.403       .  A
C969        H974   1.083       .  S
C970        C971   1.405       .  A
C971        C972   1.398       .  A
C971        F975   1.357       .  S
C972        H976   1.082       .  S
C977        C978   1.405       .  A
C977        C982   1.397       .  A
C977        H987   1.083       .  S
C978        C983   1.485       .  S
C978        C979   1.407       .  A
C979        C980   1.398       .  A
C979        F984   1.357       .  S
C980        C981   1.407       .  A
C980        H985   1.083       .  S
C981        C982   1.409       .  A
C982        F986   1.357       .  S
C983        C988   1.409       .  A
C983        C992   1.407       .  A
C988        C989   1.397       .  A
C988        F993   1.358       .  S
C989        C990   1.401       .  A
C989        H994   1.083       .  S
C990        C991   1.403       .  A
C991        C992   1.399       .  A
C991        F995   1.357       .  S
C992        H996   1.082       .  S
C997        C998   1.404       .  A
C997       C1002   1.395       .  A
C997       H1007   1.084       .  S
C998       C1003   1.476       .  S
C998        C999   1.407   1_445  A
C999       C1000   1.396       .  A
C999       F1004   1.358       .  S
C1000      C1001   1.401   1_665  A
C1000      H1005   1.084       .  S
C1001      C1002   1.404       .  A
C1002      F1006   1.358       .  S
C1003      C1008   1.405       .  A
C1003      C1012   1.402   1_445  A
C1008      C1009   1.396       .  A
C1008      F1013   1.358       .  S
C1009      C1010   1.407       .  A
C1009      H1014   1.083       .  S
C1010      C1011   1.410   1_445  A
C1011      C1012   1.395       .  A
C1011      F1015   1.357       .  S
C1012      H1016   1.084       .  S
C1017      C1018   1.403       .  A
C1017      C1022   1.396       .  A
C1017      H1027   1.082       .  S
C1018      C1023   1.485       .  S
C1018      C1019   1.408   1_545  A
C1019      C1020   1.399       .  A
C1019      F1024   1.358       .  S
C1020      C1021   1.407   1_565  A
C1020      H1025   1.082       .  S
C1021      C1022   1.410       .  A
C1022      F1026   1.357       .  S
C1023      C1028   1.410       .  A
C1023      C1032   1.405   1_545  A
C1028      C1029   1.398       .  A
C1028      F1033   1.357       .  S
C1029      C1030   1.401       .  A
C1029      H1034   1.084       .  S
C1030      C1031   1.404   1_545  A
C1031      C1032   1.397       .  A
C1031      F1035   1.358       .  S
C1032      H1036   1.083       .  S
C1037      C1038   1.406   1_545  A
C1037      C1042   1.400       .  A
C1037      H1047   1.083       .  S
C1038      C1043   1.487       .  S
C1038      C1039   1.406       .  A
C1039      C1040   1.397       .  A
C1039      F1044   1.358       .  S
C1040      C1041   1.407   1_565  A
C1040      H1045   1.082       .  S
C1041      C1042   1.410       .  A
C1042      F1046   1.357       .  S
C1043      C1048   1.409   1_565  A
C1043      C1052   1.406       .  A
C1048      C1049   1.398       .  A
C1048      F1053   1.357       .  S
C1049      C1050   1.403   1_545  A
C1049      H1054   1.084       .  S
C1050      C1051   1.404       .  A
C1051      C1052   1.397       .  A
C1051      F1055   1.358       .  S
C1052      H1056   1.083       .  S
C1057      C1058   1.405       .  A
C1057      C1062   1.398       .  A
C1057      H1067   1.083       .  S
C1058      C1063   1.484       .  S
C1058      C1059   1.407       .  A
C1059      C1060   1.396       .  A
C1059      F1064   1.358       .  S
C1060      C1061   1.406       .  A
C1060      H1065   1.083       .  S
C1061      C1062   1.409       .  A
C1062      F1066   1.357       .  S
C1063      C1068   1.408       .  A
C1063      C1072   1.406       .  A
C1068      C1069   1.397       .  A
C1068      F1073   1.357       .  S
C1069      C1070   1.403       .  A
C1069      H1074   1.083       .  S
C1070      C1071   1.406       .  A
C1071      C1072   1.397       .  A
C1071      F1075   1.358       .  S
C1072      H1076   1.083       .  S
C1077      C1078   1.403       .  A
C1077      C1082   1.397       .  A
C1077      H1087   1.084       .  S
C1078      C1083   1.477       .  S
C1078      C1079   1.404       .  A
C1079      C1080   1.396       .  A
C1079      F1084   1.358       .  S
C1080      C1081   1.406       .  A
C1080      H1085   1.084       .  S
C1081      C1082   1.408       .  A
C1082      F1086   1.357       .  S
C1083      C1088   1.405       .  A
C1083      C1092   1.401       .  A
C1088      C1089   1.398       .  A
C1088      F1093   1.358       .  S
C1089      C1090   1.406       .  A
C1089      H1094   1.084       .  S
C1090      C1091   1.410       .  A
C1091      C1092   1.395       .  A
C1091      F1095   1.357       .  S
C1092      H1096   1.084       .  S
C1097      C1098   1.406       .  A
C1097      C1102   1.396       .  A
C1097      H1107   1.083       .  S
C1098      C1103   1.485       .  S
C1098      C1099   1.409       .  A
C1099      C1100   1.398       .  A
C1099      F1104   1.358       .  S
C1100      C1101   1.403       .  A
C1100      H1105   1.083       .  S
C1101      C1102   1.404       .  A
C1102      F1106   1.357       .  S
C1103      C1108   1.407       .  A
C1103      C1112   1.404       .  A
C1108      C1109   1.397       .  A
C1108      F1113   1.357       .  S
C1109      C1110   1.406       .  A
C1109      H1114   1.082       .  S
C1110      C1111   1.410       .  A
C1111      C1112   1.397       .  A
C1111      F1115   1.357       .  S
C1112      H1116   1.082       .  S
C1117      C1118   1.405       .  A
C1117      C1122   1.397       .  A
C1117      H1127   1.083       .  S
C1118      C1123   1.485       .  S
C1118      C1119   1.408       .  A
C1119      C1120   1.399       .  A
C1119      F1124   1.358       .  S
C1120      C1121   1.404       .  A
C1120      H1125   1.083       .  S
C1121      C1122   1.405       .  A
C1122      F1126   1.357       .  S
C1123      C1128   1.407       .  A
C1123      C1132   1.405       .  A
C1128      C1129   1.397       .  A
C1128      F1133   1.358       .  S
C1129      C1130   1.406       .  A
C1129      H1134   1.082       .  S
C1130      C1131   1.410       .  A
C1131      C1132   1.398       .  A
C1131      F1135   1.357       .  S
C1132      H1136   1.082       .  S
C1137      C1138   1.403       .  A
C1137      C1142   1.397       .  A
C1137      H1147   1.083       .  S
C1138      C1143   1.478       .  S
C1138      C1139   1.404   1_565  A
C1139      C1140   1.395       .  A
C1139      F1144   1.358       .  S
C1140      C1141   1.406   1_545  A
C1140      H1145   1.083       .  S
C1141      C1142   1.409       .  A
C1142      F1146   1.357       .  S
C1143      C1148   1.407   1_565  A
C1143      C1152   1.404       .  A
C1148      C1149   1.396       .  A
C1148      F1153   1.357       .  S
C1149      C1150   1.402       .  A
C1149      H1154   1.083       .  S
C1150      C1151   1.406   1_545  A
C1151      C1152   1.395       .  A
C1151      F1155   1.358       .  S
C1152      H1156   1.083       .  S
C1157      C1158   1.400       .  A
C1157      C1162   1.395       .  A
C1157      H1167   1.083       .  S
C1158      C1163   1.470       .  S
C1158      C1159   1.402   1_565  A
C1159      C1160   1.395       .  A
C1159      F1164   1.358       .  S
C1160      C1161   1.406       .  A
C1160      H1165   1.083       .  S
C1161      C1162   1.410   1_545  A
C1162      F1166   1.357       .  S
C1163      C1168   1.401   1_565  A
C1163      C1172   1.402       .  A
C1168      C1169   1.393       .  A
C1168      F1173   1.358       .  S
C1169      C1170   1.406   1_545  A
C1169      H1174   1.083       .  S
C1170      C1171   1.410       .  A
C1171      C1172   1.397       .  A
C1171      F1175   1.357       .  S
C1172      H1176   1.083       .  S
C1177      C1178   1.405   1_655  A
C1177      C1182   1.398       .  A
C1177      H1187   1.083       .  S
C1178      C1183   1.487       .  S
C1178      C1179   1.408       .  A
C1179      C1180   1.399       .  A
C1179      F1184   1.357       .  S
C1180      C1181   1.405       .  A
C1180      H1185   1.083       .  S
C1181      C1182   1.408   1_455  A
C1182      F1186   1.357       .  S
C1183      C1188   1.408       .  A
C1183      C1192   1.406   1_455  A
C1188      C1189   1.399       .  A
C1188      F1193   1.357       .  S
C1189      C1190   1.406       .  A
C1189      H1194   1.083       .  S
C1190      C1191   1.407   1_455  A
C1191      C1192   1.398       .  A
C1191      F1195   1.357       .  S
C1192      H1196   1.083       .  S
C1197      C1198   1.403       .  A
C1197      C1202   1.396       .  A
C1197      H1207   1.084       .  S
C1198      C1203   1.478       .  S
C1198      C1199   1.405   1_455  A
C1199      C1200   1.397       .  A
C1199      F1204   1.358       .  S
C1200      C1201   1.406   1_655  A
C1200      H1205   1.084       .  S
C1201      C1202   1.408       .  A
C1202      F1206   1.357       .  S
C1203      C1208   1.407   1_455  A
C1203      C1212   1.402       .  A
C1208      C1209   1.398       .  A
C1208      F1213   1.357       .  S
C1209      C1210   1.405   1_655  A
C1209      H1214   1.084       .  S
C1210      C1211   1.408       .  A
C1211      C1212   1.395       .  A
C1211      F1215   1.358       .  S
C1212      H1216   1.084       .  S
C1217      C1218   1.406   1_655  A
C1217      C1222   1.398       .  A
C1217      H1227   1.083       .  S
C1218      C1223   1.487       .  S
C1218      C1219   1.409       .  A
C1219      C1220   1.399       .  A
C1219      F1224   1.357       .  S
C1220      C1221   1.403       .  A
C1220      H1225   1.083       .  S
C1221      C1222   1.406   1_455  A
C1222      F1226   1.358       .  S
C1223      C1228   1.407   1_455  A
C1223      C1232   1.405       .  A
C1228      C1229   1.399       .  A
C1228      F1233   1.358       .  S
C1229      C1230   1.407   1_655  A
C1229      H1234   1.082       .  S
C1230      C1231   1.410       .  A
C1231      C1232   1.398       .  A
C1231      F1235   1.357       .  S
C1232      H1236   1.082       .  S
C1237      C1238   1.407       .  A
C1237      C1242   1.398       .  A
C1237      H1247   1.083       .  S
C1238      C1243   1.488       .  S
C1238      C1239   1.410   1_455  A
C1239      C1240   1.398       .  A
C1239      F1244   1.358       .  S
C1240      C1241   1.402   1_655  A
C1240      H1245   1.084       .  S
C1241      C1242   1.404       .  A
C1242      F1246   1.358       .  S
C1243      C1248   1.408       .  A
C1243      C1252   1.405   1_455  A
C1248      C1249   1.399       .  A
C1248      F1253   1.358       .  S
C1249      C1250   1.407       .  A
C1249      H1254   1.083       .  S
C1250      C1251   1.410   1_455  A
C1251      C1252   1.396       .  A
C1251      F1255   1.357       .  S
C1252      H1256   1.083       .  S
C1257      C1258   1.403       .  A
C1257      C1262   1.397       .  A
C1257      H1267   1.083       .  S
C1258      C1263   1.478       .  S
C1258      C1259   1.406   1_445  A
C1259      C1260   1.394       .  A
C1259      F1264   1.358       .  S
C1260      C1261   1.405   1_665  A
C1260      H1265   1.083       .  S
C1261      C1262   1.410       .  A
C1262      F1266   1.357       .  S
C1263      C1268   1.406   1_445  A
C1263      C1272   1.405       .  A
C1268      C1269   1.394       .  A
C1268      F1273   1.358       .  S
C1269      C1270   1.402   1_665  A
C1269      H1274   1.083       .  S
C1270      C1271   1.404       .  A
C1271      C1272   1.397       .  A
C1271      F1275   1.358       .  S
C1272      H1276   1.083       .  S
C1277      C1278   1.402       .  A
C1277      C1282   1.393       .  A
C1277      H1287   1.084       .  S
C1278      C1283   1.475       .  S
C1278      C1279   1.404   1_445  A
C1279      C1280   1.396       .  A
C1279      F1284   1.358       .  S
C1280      C1281   1.407   1_665  A
C1280      H1285   1.083       .  S
C1281      C1282   1.408       .  A
C1282      F1286   1.357       .  S
C1283      C1288   1.405   1_445  A
C1283      C1292   1.402       .  A
C1288      C1289   1.396       .  A
C1288      F1293   1.357       .  S
C1289      C1290   1.406   1_665  A
C1289      H1294   1.083       .  S
C1290      C1291   1.409       .  A
C1291      C1292   1.394       .  A
C1291      F1295   1.358       .  S
C1292      H1296   1.083       .  S
