geometry optimzed in LAMMPS
_audit_creation_date              2020-12-01 
_audit_creation_method            'lammps2cif' 
_symmetry_space_group_name_H-M    'P1' 
_symmetry_Int_Tables_number       1 
_symmetry_cell_setting            triclinic 
loop_ 
_symmetry_equiv_pos_as_xyz 
  x,y,z 
_cell_length_a                    40.3915715 
_cell_length_b                    40.288168460724854 
_cell_length_c                    41.921561833794286 
_cell_angle_alpha                 90.33677884723144 
_cell_angle_beta                  89.97421548080288 
_cell_angle_gamma                 119.58803818143791 
loop_ 
_atom_site_label 
_atom_site_type_symbol 
_atom_site_fract_x 
_atom_site_fract_y 
_atom_site_fract_z 
_atom_site_charge 
O1          O  0.29618656  0.03474459  0.03225664    -0.72100
O2          O  0.25147930  0.45699742  0.96771104    -0.72400
O3          O  0.29546161  0.03286172  0.96778850    -0.72200
O4          O  0.25353429  0.45826976  0.03175370    -0.72200
O5          O  0.20306739  0.46442342  0.03385081    -0.72200
O6          O  0.24436413  0.03793020  0.96664924    -0.72200
O7          O  0.20050003  0.46221826  0.96965576    -0.72200
O8          O  0.24573761  0.04100162  0.03068414    -0.72300
V9          V  0.27323039  0.99589834  0.99995493     1.35200
V10         V  0.22439577  0.50126650  0.00030666     1.35200
C11         C  0.27820815  0.05122618  0.04208954     0.77100
C12         C  0.21837975  0.44717962  0.95731543     0.77100
C13         C  0.27684092  0.04695604  0.95532403     0.77000
C14         C  0.22158766  0.44868188  0.04390026     0.77000
C15         C  0.14534081  0.30203547  0.81166162     0.02800
C16         C  0.10534174  0.27955474  0.81081517    -0.13400
C17         C  0.08243486  0.28637936  0.83236878     0.00300
C18         C  0.10084624  0.31438236  0.85637296    -0.11900
C19         C  0.14068070  0.33458954  0.85882319     0.02800
C20         C  0.16262229  0.32939517  0.83579149    -0.11300
H21         H  0.09231873  0.25706438  0.79312009     0.08300
H22         H  0.08441341  0.32059437  0.87336531     0.05900
H23         H  0.19332571  0.34722610  0.83647274     0.05700
C24         C  0.35510229  0.18982902  0.80780440     0.02800
C25         C  0.33514127  0.16348912  0.83185872    -0.13400
C26         C  0.35469501  0.15445658  0.85463498     0.00300
C27         C  0.39450181  0.17144129  0.85302182    -0.11900
C28         C  0.41543426  0.20046989  0.83082895     0.02800
C29         C  0.39519341  0.20900165  0.80797003    -0.11300
H30         H  0.30438069  0.15007739  0.83294287     0.08300
H31         H  0.40913559  0.16286681  0.86986102     0.05900
H32         H  0.41053535  0.23095814  0.79042861     0.05700
O33         O  0.04019133  0.29146603  0.30232851    -0.72100
O34         O  0.46382904  0.25371481  0.36790746    -0.72400
O35         O  0.04036749  0.29125822  0.36663781    -0.72200
O36         O  0.46418550  0.25617149  0.30345546    -0.72200
O37         O  0.46315574  0.20182067  0.30058452    -0.72200
O38         O  0.03840549  0.23635454  0.36719740    -0.72200
O39         O  0.46226569  0.19915324  0.36487969    -0.72200
O40         O  0.03927565  0.23719934  0.30294587    -0.72300
V41         V  0.00207710  0.27209344  0.33512477     1.35200
V42         V  0.50078886  0.21969651  0.33393564     1.35200
C43         C  0.05239985  0.27007203  0.29131701     0.77100
C44         C  0.45024567  0.21958182  0.37755023     0.77100
C45         C  0.05205061  0.27007872  0.37805435     0.77000
C46         C  0.45173981  0.22402796  0.29025681     0.77000
C47         C  0.34129934  0.19382613  0.19082791     0.02800
C48         C  0.33337800  0.16605715  0.16742340    -0.13400
C49         C  0.30604893  0.15855338  0.14376519     0.00300
C50         C  0.28646065  0.17943326  0.14380730    -0.11900
C51         C  0.29604053  0.20974004  0.16567255     0.02800
C52         C  0.32385102  0.21654170  0.18914889    -0.11300
H53         H  0.34895137  0.15053935  0.16749872     0.08300
H54         H  0.26386205  0.17195408  0.12661869     0.05900
H55         H  0.33209973  0.23946331  0.20634074     0.05700
C56         C  0.16139024  0.30367713  0.18939270     0.02800
C57         C  0.18375027  0.28574262  0.18947026    -0.13400
C58         C  0.21299758  0.29537515  0.16690233     0.00300
C59         C  0.21824260  0.32242316  0.14329590    -0.11900
C60         C  0.19457941  0.33895675  0.14201693     0.02800
C61         C  0.16694536  0.33003502  0.16557924    -0.11300
H62         H  0.17819159  0.26419498  0.20719665     0.08300
H63         H  0.24059777  0.33059159  0.12576034     0.05900
H64         H  0.14890866  0.34293356  0.16491525     0.05700
O65         O  0.21249203  0.25189511  0.63349103    -0.72100
O66         O  0.24761980  0.21376234  0.70165610    -0.72400
O67         O  0.20982107  0.25275403  0.69729458    -0.72200
O68         O  0.24813021  0.21077287  0.63726689    -0.72200
O69         O  0.30082650  0.26491210  0.63385177    -0.72200
O70         O  0.26523016  0.30393053  0.70137445    -0.72200
O71         O  0.30286659  0.26488242  0.69809853    -0.72200
O72         O  0.26513075  0.30589277  0.63737726    -0.72300
V73         V  0.23053910  0.23321417  0.66744625     1.35200
V74         V  0.28253886  0.28389857  0.66767019     1.35200
C75         C  0.23344816  0.28589487  0.62394043     0.77100
C76         C  0.28163508  0.23368562  0.71167030     0.77100
C77         C  0.23078440  0.28469746  0.71015601     0.77000
C78         C  0.27991105  0.23083341  0.62418169     0.77000
C79         C  0.30524820  0.14763701  0.52425541     0.02800
C80         C  0.33265998  0.16586113  0.50066461    -0.13400
C81         C  0.33856787  0.14457939  0.47719165     0.00300
C82         C  0.31646727  0.10442652  0.47741194    -0.11900
C83         C  0.28674749  0.08547455  0.49970002     0.02800
C84         C  0.28170303  0.10781643  0.52326416    -0.11300
H85         H  0.35019639  0.19669587  0.50111264     0.08300
H86         H  0.32254708  0.08816168  0.46010348     0.05900
H87         H  0.25939802  0.09453493  0.54088971     0.05700
C88         C  0.18962152  0.35918931  0.52772896     0.02800
C89         C  0.16300110  0.33756435  0.50420820    -0.13400
C90         C  0.15434323  0.35543579  0.47968628     0.00300
C91         C  0.17198497  0.39558554  0.47912089    -0.11900
C92         C  0.19908281  0.41806816  0.50260874     0.02800
C93         C  0.20864419  0.39922231  0.52600684    -0.11300
H94         H  0.14966888  0.30669787  0.50450245     0.08300
H95         H  0.16429583  0.40905516  0.46049692     0.05900
H96         H  0.23098758  0.41565522  0.54310426     0.05700
C97         C  0.26206370  0.04259962  0.49948468    -0.06500
C98         C  0.25068837  0.02324597  0.52878905    -0.17600
C99         C  0.22758146  0.48348125  0.53034071     0.10700
C100        C  0.21861378  0.46100053  0.50211775    -0.06400
C101        C  0.22954048  0.48023328  0.47276626    -0.17700
C102        C  0.24917587  0.02029899  0.47109160     0.10700
S103        S  0.20824340  0.46401500  0.56899480    -0.32600
S104        S  0.25388460  0.04053990  0.43196634    -0.32600
H105        H  0.24978463  0.07153623  0.44250457     0.28700
H106        H  0.17352035  0.43438895  0.55711293     0.28700
H107        H  0.25917273  0.03917154  0.55099032     0.19300
H108        H  0.22224166  0.46401498  0.45070358     0.19300
C109        C  0.30139441  0.17073316  0.54990039    -0.06500
C110        C  0.28307082  0.19158385  0.54282231    -0.17600
C111        C  0.27681643  0.21240431  0.56650246     0.10700
C112        C  0.29074580  0.21405657  0.59772473    -0.06400
C113        C  0.30995995  0.19396227  0.60465387    -0.17700
C114        C  0.31546689  0.17233645  0.58107378     0.10700
S115        S  0.24943438  0.23485621  0.55569619    -0.32600
S116        S  0.33966778  0.14668216  0.59243745    -0.32600
H117        H  0.35566418  0.14766969  0.56243983     0.28700
H118        H  0.22449001  0.22017623  0.58168521     0.28700
H119        H  0.27224717  0.19039411  0.51894091     0.19300
H120        H  0.31975901  0.19424567  0.62877240     0.19300
C121        C  0.22198244  0.30273382  0.59789215    -0.06500
C122        C  0.18362190  0.29295720  0.59491264    -0.17600
C123        C  0.17226511  0.31161591  0.57302223     0.10700
C124        C  0.19966649  0.33992392  0.55282685    -0.06400
C125        C  0.23781059  0.34922925  0.55553768    -0.17700
C126        C  0.24927796  0.33101795  0.57749362     0.10700
S127        S  0.12288318  0.29942948  0.57333510    -0.32600
S128        S  0.29923436  0.34510591  0.57733628    -0.32600
H129        H  0.29415028  0.30879816  0.58399261     0.28700
H130        H  0.12935090  0.33581579  0.56464870     0.28700
H131        H  0.16260999  0.27190254  0.61072682     0.19300
H132        H  0.25887295  0.37042364  0.53982804     0.19300
C133        C  0.23666626  0.27591108  0.16698984    -0.06500
C134        C  0.24500403  0.26413174  0.13783736    -0.17600
C135        C  0.26604490  0.24488057  0.13643757     0.10700
C136        C  0.27646824  0.23346731  0.16502939    -0.06400
C137        C  0.26823962  0.24553368  0.19415309    -0.17700
C138        C  0.25053035  0.26799158  0.19536007     0.10700
S139        S  0.28082323  0.23871194  0.09727258    -0.32600
S140        S  0.24931870  0.28783230  0.23376435    -0.32600
H141        H  0.25332423  0.32208792  0.22157322     0.28700
H142        H  0.31641913  0.24422367  0.10735285     0.28700
H143        H  0.23560435  0.27051616  0.11567185     0.19300
H144        H  0.27622732  0.23805222  0.21648834     0.19300
C145        C  0.42202602  0.20287793  0.40368494    -0.06500
C146        C  0.42512675  0.17677967  0.42394278    -0.17600
C147        C  0.39905860  0.15821025  0.44843207     0.10700
C148        C  0.36816611  0.16482940  0.45261406    -0.06400
C149        C  0.36537575  0.19155245  0.43293651    -0.17700
C150        C  0.39170763  0.21037638  0.40843511     0.10700
S151        S  0.40763542  0.12746233  0.47414110    -0.32600
S152        S  0.38375785  0.24174126  0.38310784    -0.32600
H153        H  0.39292238  0.22951200  0.35461084     0.28700
H154        H  0.39312763  0.13524456  0.50196149     0.31100
H155        H  0.44855595  0.17112871  0.42097688     0.19300
H156        H  0.34179665  0.19692904  0.43608876     0.19300
C157        C  0.42530828  0.21422881  0.26294565    -0.06500
C158        C  0.39122676  0.17927166  0.26227804    -0.17600
C159        C  0.36309010  0.17193302  0.23929225     0.10700
C160        C  0.36922468  0.20008828  0.21632206    -0.06400
C161        C  0.40374516  0.23449125  0.21652396    -0.17700
C162        C  0.43196230  0.24151981  0.23906067     0.10700
S163        S  0.31961266  0.12670539  0.24131877    -0.32600
S164        S  0.47665022  0.28526909  0.23525693    -0.32600
H165        H  0.49895602  0.26882576  0.24398694     0.28700
H166        H  0.29566763  0.13944515  0.22863825     0.28700
H167        H  0.38581203  0.15825544  0.28052580     0.19300
H168        H  0.40913460  0.25568517  0.19843671     0.19300
C169        C  0.07992929  0.28091677  0.26456045    -0.06500
C170        C  0.07756353  0.25100735  0.24532281    -0.17600
C171        C  0.10265442  0.25768394  0.22012637     0.10700
C172        C  0.13203454  0.29516061  0.21416728    -0.06400
C173        C  0.13376427  0.32538859  0.23247650    -0.17700
C174        C  0.10818747  0.31876076  0.25754070     0.10700
S175        S  0.09459299  0.21725427  0.19578542    -0.32600
S176        S  0.11423576  0.35965171  0.27999222    -0.32600
H177        H  0.10790137  0.34204065  0.30987221     0.28700
H178        H  0.10725676  0.23768160  0.16711883     0.28700
H179        H  0.05537468  0.22189554  0.24955759     0.19300
H180        H  0.15597267  0.35436460  0.22778387     0.19300
C181        C  0.12777684  0.33168045  0.45408701    -0.06500
C182        C  0.14219085  0.33388672  0.42323215    -0.17600
C183        C  0.11878216  0.31082854  0.39838836     0.10700
C184        C  0.07992109  0.28525413  0.40427194    -0.06400
C185        C  0.06579770  0.28208219  0.43532302    -0.17700
C186        C  0.08918136  0.30498632  0.46022826     0.10700
S187        S  0.13988464  0.31602604  0.35953792    -0.32600
S188        S  0.06746740  0.30023667  0.49878225    -0.32600
H189        H  0.09077180  0.33836020  0.50850289     0.28700
H190        H  0.11323553  0.27965035  0.34796602     0.28700
H191        H  0.17197011  0.35359987  0.41851623     0.19300
H192        H  0.03574152  0.26328336  0.43978689     0.19300
C193        C  0.33431847  0.19950430  0.78377282    -0.06500
C194        C  0.34397275  0.23781808  0.78095542    -0.17600
C195        C  0.32577389  0.24926637  0.75896554     0.10700
C196        C  0.29723098  0.22186393  0.73852660    -0.06400
C197        C  0.28641629  0.18322526  0.74214289    -0.17700
C198        C  0.30495990  0.17180976  0.76417794     0.10700
S199        S  0.34015045  0.29939108  0.75897521    -0.32600
S200        S  0.29146145  0.12195005  0.76459056    -0.32600
H201        H  0.32805097  0.12787662  0.77155854     0.28700
H202        H  0.30359579  0.29368832  0.75263593     0.28700
H203        H  0.36571458  0.25909948  0.79639133     0.19300
H204        H  0.26485220  0.16203667  0.72655293     0.19300
C205        C  0.45817423  0.22226860  0.83162068    -0.06500
C206        C  0.47850523  0.23154821  0.80272758    -0.17600
C207        C  0.01840644  0.25352042  0.80193378     0.10700
C208        C  0.03960732  0.26400063  0.83087853    -0.06400
C209        C  0.01912924  0.25366587  0.85971786    -0.17700
C210        C  0.47929051  0.23505242  0.86042723     0.10700
S211        S  0.03950255  0.26947442  0.76313264    -0.32600
S212        S  0.45787700  0.23188533  0.89889820    -0.32600
H213        H  0.42914139  0.23873261  0.88725114     0.28700
H214        H  0.06754936  0.30581788  0.77371464     0.28700
H215        H  0.46313903  0.22265265  0.78031336     0.19300
H216        H  0.03424423  0.26122871  0.88226052     0.19300
C217        C  0.16918262  0.29937908  0.78594265    -0.06500
C218        C  0.16051187  0.30313186  0.75420798    -0.17600
C219        C  0.18265931  0.30215038  0.72898660     0.10700
C220        C  0.21432636  0.29736255  0.73540889    -0.06400
C221        C  0.22370740  0.29462875  0.76707215    -0.17700
C222        C  0.20137267  0.29531026  0.79243758     0.10700
S223        S  0.16841487  0.30584436  0.68895523    -0.32600
S224        S  0.21209804  0.28712081  0.83251957    -0.32600
H225        H  0.24708276  0.28906691  0.82552889     0.28700
H226        H  0.20486235  0.32098009  0.67541844     0.28700
H227        H  0.13630568  0.30693089  0.74902711     0.19300
H228        H  0.24684284  0.28908827  0.77177527     0.19300
C229        C  0.20723744  0.41910163  0.06871767    -0.06500
C230        C  0.20200429  0.38304029  0.06030647    -0.17600
C231        C  0.19646223  0.35592332  0.08350050     0.10700
C232        C  0.19812095  0.36560088  0.11616359    -0.06400
C233        C  0.20234934  0.40136875  0.12450809    -0.17700
C234        C  0.20633541  0.42788012  0.10121301     0.10700
S235        S  0.18687143  0.30947481  0.06977274    -0.32600
S236        S  0.21312241  0.47337053  0.11460992    -0.32600
H237        H  0.19242054  0.47772110  0.08968037     0.28700
H238        H  0.16225152  0.28905008  0.09492171     0.28700
H239        H  0.20279542  0.37615357  0.03536660     0.19300
H240        H  0.20318237  0.40898096  0.14945676     0.19300
C241        C  0.29993617  0.13058172  0.11787937    -0.06500
C242        C  0.30281055  0.14240193  0.08602986    -0.17600
C243        C  0.29916320  0.11802799  0.06065465     0.10700
C244        C  0.29307352  0.08105063  0.06697663    -0.06400
C245        C  0.29181211  0.06972336  0.09865423    -0.17700
C246        C  0.29396720  0.09346242  0.12407174     0.10700
S247        S  0.30192352  0.13543533  0.02062963    -0.32600
S248        S  0.28520495  0.07316989  0.16346970    -0.32600
H249        H  0.26713054  0.09302897  0.17499738     0.28700
H250        H  0.31420754  0.11178521  0.00623858     0.28700
H251        H  0.30804315  0.17091667  0.08085268     0.19300
H252        H  0.28621878  0.04106651  0.10359326     0.19300
C253        C  0.15996498  0.36238990  0.88483683    -0.06500
C254        C  0.15966065  0.39692838  0.88405602    -0.17600
C255        C  0.17980257  0.42558073  0.90676212     0.10700
C256        C  0.20040811  0.41935002  0.93107708    -0.06400
C257        C  0.20147867  0.38512457  0.93138602    -0.17700
C258        C  0.18115037  0.35642522  0.90874451     0.10700
S259        S  0.18071197  0.47078092  0.90335080    -0.32600
S260        S  0.18266507  0.31257354  0.91207185    -0.32600
H261        H  0.14645013  0.28867072  0.89887934     0.28700
H262        H  0.15672706  0.46127824  0.87653555     0.28700
H263        H  0.14421925  0.40163651  0.86513537     0.19300
H264        H  0.21706228  0.38015360  0.95004717     0.19300
C265        C  0.29323774  0.07273527  0.92785717    -0.06500
C266        C  0.29294281  0.10737298  0.92735179    -0.17600
C267        C  0.31317820  0.13484052  0.90402567     0.10700
C268        C  0.33347758  0.12717073  0.88027534    -0.06400
C269        C  0.33285415  0.09216255  0.88033312    -0.17700
C270        C  0.31260739  0.06476868  0.90345979     0.10700
S271        S  0.31333540  0.17962046  0.90671418    -0.32600
S272        S  0.31140200  0.01956646  0.89978956    -0.32600
H273        H  0.27328625  0.99781293  0.90952993     0.28700
H274        H  0.34997821  0.20224245  0.89403696     0.28700
H275        H  0.27836863  0.11379408  0.94603242     0.19300
H276        H  0.34770038  0.08584718  0.86180577     0.19300
O277        O  0.29618676  0.53474468  0.03225650    -0.72100
O278        O  0.25147917  0.95699731  0.96771120    -0.72400
O279        O  0.29546185  0.53286176  0.96778843    -0.72200
O280        O  0.25353428  0.95826973  0.03175376    -0.72200
O281        O  0.20306728  0.96442324  0.03385087    -0.72200
O282        O  0.24436441  0.53793026  0.96664910    -0.72200
O283        O  0.20049988  0.96221814  0.96965577    -0.72200
O284        O  0.24573781  0.54100171  0.03068409    -0.72300
V285        V  0.27323053  0.49589839  0.99995483     1.35200
V286        V  0.22439557  0.00126636  0.00030674     1.35200
C287        C  0.27820833  0.55122623  0.04208948     0.77100
C288        C  0.21837964  0.94717949  0.95731553     0.77100
C289        C  0.27684120  0.54695607  0.95532393     0.77000
C290        C  0.22158764  0.94868177  0.04390031     0.77000
C291        C  0.14534117  0.80203545  0.81166161     0.02800
C292        C  0.10534212  0.77955466  0.81081517    -0.13400
C293        C  0.08243520  0.78637925  0.83236873     0.00300
C294        C  0.10084653  0.81438229  0.85637293    -0.11900
C295        C  0.14068100  0.83458957  0.85882311     0.02800
C296        C  0.16262268  0.82939524  0.83579145    -0.11300
H297        H  0.09231915  0.75706428  0.79312013     0.08300
H298        H  0.08441378  0.82059416  0.87336521     0.05900
H299        H  0.19332582  0.84722605  0.83647269     0.05700
C300        C  0.35510273  0.68982900  0.80780438     0.02800
C301        C  0.33514166  0.66348905  0.83185867    -0.13400
C302        C  0.35469544  0.65445659  0.85463497     0.00300
C303        C  0.39450222  0.67144133  0.85302187    -0.11900
C304        C  0.41543470  0.70046981  0.83082893     0.02800
C305        C  0.39519385  0.70900156  0.80796999    -0.11300
H306        H  0.30438122  0.65007729  0.83294278     0.08300
H307        H  0.40913606  0.66286688  0.86986119     0.05900
H308        H  0.41053583  0.73095804  0.79042853     0.05700
O309        O  0.04019152  0.79146589  0.30232855    -0.72100
O310        O  0.46382943  0.75371482  0.36790747    -0.72400
O311        O  0.04036767  0.79125806  0.36663783    -0.72200
O312        O  0.46418579  0.75617144  0.30345547    -0.72200
O313        O  0.46315593  0.70182058  0.30058455    -0.72200
O314        O  0.03840560  0.73635435  0.36719751    -0.72200
O315        O  0.46226598  0.69915319  0.36487973    -0.72200
O316        O  0.03927584  0.73719920  0.30294595    -0.72300
V317        V  0.00207725  0.77209328  0.33512479     1.35200
V318        V  0.50078909  0.71969640  0.33393566     1.35200
C319        C  0.05240010  0.77007193  0.29131711     0.77100
C320        C  0.45024601  0.71958182  0.37755025     0.77100
C321        C  0.05205074  0.77007854  0.37805443     0.77000
C322        C  0.45174003  0.72402789  0.29025683     0.77000
C323        C  0.34129958  0.69382612  0.19082793     0.02800
C324        C  0.33337824  0.66605719  0.16742339    -0.13400
C325        C  0.30604917  0.65855339  0.14376520     0.00300
C326        C  0.28646092  0.67943331  0.14380731    -0.11900
C327        C  0.29604083  0.70974011  0.16567255     0.02800
C328        C  0.32385132  0.71654176  0.18914890    -0.11300
H329        H  0.34895168  0.65053939  0.16749866     0.08300
H330        H  0.26386233  0.67195415  0.12661869     0.05900
H331        H  0.33210004  0.73946335  0.20634071     0.05700
C332        C  0.16139050  0.80367701  0.18939277     0.02800
C333        C  0.18375058  0.78574253  0.18947027    -0.13400
C334        C  0.21299789  0.79537517  0.16690233     0.00300
C335        C  0.21824289  0.82242319  0.14329592    -0.11900
C336        C  0.19457956  0.83895663  0.14201694     0.02800
C337        C  0.16694552  0.83003483  0.16557929    -0.11300
H338        H  0.17819195  0.76419488  0.20719657     0.08300
H339        H  0.24059805  0.83059167  0.12576039     0.05900
H340        H  0.14890873  0.84293328  0.16491531     0.05700
O341        O  0.21249245  0.75189523  0.63349108    -0.72100
O342        O  0.24762030  0.71376252  0.70165617    -0.72400
O343        O  0.20982158  0.75275416  0.69729459    -0.72200
O344        O  0.24813077  0.71077304  0.63726692    -0.72200
O345        O  0.30082704  0.76491231  0.63385179    -0.72200
O346        O  0.26523065  0.80393069  0.70137448    -0.72200
O347        O  0.30286712  0.76488257  0.69809854    -0.72200
O348        O  0.26513114  0.80589292  0.63737731    -0.72300
V349        V  0.23053961  0.73321432  0.66744629     1.35200
V350        V  0.28253935  0.78389875  0.66767021     1.35200
C351        C  0.23344854  0.78589502  0.62394050     0.77100
C352        C  0.28163559  0.73368578  0.71167035     0.77100
C353        C  0.23078489  0.78469759  0.71015604     0.77000
C354        C  0.27991163  0.73083359  0.62418173     0.77000
C355        C  0.30524850  0.64763707  0.52425540     0.02800
C356        C  0.33266022  0.66586109  0.50066458    -0.13400
C357        C  0.33856809  0.64457939  0.47719162     0.00300
C358        C  0.31646745  0.60442651  0.47741194    -0.11900
C359        C  0.28674762  0.58547460  0.49970001     0.02800
C360        C  0.28170325  0.60781650  0.52326417    -0.11300
H361        H  0.35019682  0.69669609  0.50111260     0.08300
H362        H  0.32254726  0.58816162  0.46010352     0.05900
H363        H  0.25939825  0.59453505  0.54088977     0.05700
C364        C  0.18962169  0.85918923  0.52772895     0.02800
C365        C  0.16300125  0.83756421  0.50420820    -0.13400
C366        C  0.15434335  0.85543571  0.47968630     0.00300
C367        C  0.17198507  0.89558543  0.47912091    -0.11900
C368        C  0.19908289  0.91806807  0.50260874     0.02800
C369        C  0.20864430  0.89922221  0.52600684    -0.11300
H370        H  0.14966918  0.80669801  0.50450242     0.08300
H371        H  0.16429592  0.90905514  0.46049681     0.05900
H372        H  0.23098767  0.91565510  0.54310424     0.05700
C373        C  0.26206374  0.54259969  0.49948468    -0.06500
C374        C  0.25068837  0.52324605  0.52878904    -0.17600
C375        C  0.22758157  0.98348114  0.53034073     0.10700
C376        C  0.21861390  0.96100043  0.50211776    -0.06400
C377        C  0.22954050  0.98023320  0.47276626    -0.17700
C378        C  0.24917593  0.52029907  0.47109159     0.10700
S379        S  0.20824334  0.96401485  0.56899478    -0.32600
S380        S  0.25388489  0.54054001  0.43196633    -0.32600
H381        H  0.24978505  0.57153644  0.44250448     0.28700
H382        H  0.17352032  0.93438881  0.55711284     0.28700
H383        H  0.25917280  0.53917159  0.55099031     0.19300
H384        H  0.22224164  0.96401492  0.45070359     0.19300
C385        C  0.30139483  0.67073325  0.54990042    -0.06500
C386        C  0.28307157  0.69158426  0.54282230    -0.17600
C387        C  0.27681725  0.71240473  0.56650249     0.10700
C388        C  0.29074641  0.71405674  0.59772479    -0.06400
C389        C  0.30996012  0.69396201  0.60465395    -0.17700
C390        C  0.31546694  0.67233610  0.58107388     0.10700
S391        S  0.24943579  0.73485722  0.55569616    -0.32600
S392        S  0.33966722  0.64668119  0.59243764    -0.32600
H393        H  0.35566411  0.64766911  0.56244017     0.28700
H394        H  0.22449120  0.72017739  0.58168506     0.28700
H395        H  0.27224820  0.69039482  0.51894094     0.19300
H396        H  0.31975892  0.69424511  0.62877266     0.19300
C397        C  0.22198281  0.80273395  0.59789218    -0.06500
C398        C  0.18362225  0.79295722  0.59491265    -0.17600
C399        C  0.17226534  0.81161580  0.57302221     0.10700
C400        C  0.19966670  0.83992389  0.55282685    -0.06400
C401        C  0.23781085  0.84922936  0.55553771    -0.17700
C402        C  0.24927833  0.83101813  0.57749365     0.10700
S403        S  0.12288329  0.79942907  0.57333508    -0.32600
S404        S  0.29923486  0.84510655  0.57733653    -0.32600
H405        H  0.29415110  0.80879893  0.58399289     0.28700
H406        H  0.12935086  0.83581534  0.56464874     0.28700
H407        H  0.16261034  0.77190251  0.61072686     0.19300
H408        H  0.25887321  0.87042388  0.53982811     0.19300
C409        C  0.23666654  0.77591109  0.16698982    -0.06500
C410        C  0.24500419  0.76413163  0.13783734    -0.17600
C411        C  0.26604511  0.74488049  0.13643756     0.10700
C412        C  0.27646853  0.73346736  0.16502940    -0.06400
C413        C  0.26823990  0.74553375  0.19415311    -0.17700
C414        C  0.25053057  0.76799161  0.19536008     0.10700
S415        S  0.28082374  0.73871206  0.09727260    -0.32600
S416        S  0.24931914  0.78783265  0.23376431    -0.32600
H417        H  0.25332459  0.82208818  0.22157301     0.28700
H418        H  0.31641954  0.74422361  0.10735298     0.28700
H419        H  0.23560449  0.77051602  0.11567183     0.19300
H420        H  0.27622768  0.73805237  0.21648837     0.19300
C421        C  0.42202636  0.70287797  0.40368494    -0.06500
C422        C  0.42512698  0.67677970  0.42394280    -0.17600
C423        C  0.39905882  0.65821024  0.44843207     0.10700
C424        C  0.36816633  0.66482940  0.45261402    -0.06400
C425        C  0.36537601  0.69155247  0.43293643    -0.17700
C426        C  0.39170797  0.71037641  0.40843507     0.10700
S427        S  0.40763570  0.62746247  0.47414130    -0.32600
S428        S  0.38375821  0.74174114  0.38310759    -0.32600
H429        H  0.39292267  0.72951163  0.35461067     0.28700
H430        H  0.39312784  0.63524474  0.50196163     0.31100
H431        H  0.44855640  0.67112870  0.42097691     0.19300
H432        H  0.34179687  0.69692904  0.43608858     0.19300
C433        C  0.42530851  0.71422877  0.26294566    -0.06500
C434        C  0.39122702  0.67927157  0.26227800    -0.17600
C435        C  0.36309044  0.67193287  0.23929211     0.10700
C436        C  0.36922494  0.70008823  0.21632204    -0.06400
C437        C  0.40374543  0.73449120  0.21652395    -0.17700
C438        C  0.43196260  0.74151973  0.23906062     0.10700
S439        S  0.31961305  0.62670520  0.24131853    -0.32600
S440        S  0.47665047  0.78526914  0.23525694    -0.32600
H441        H  0.49895639  0.76882593  0.24398696     0.28700
H442        H  0.29566797  0.63944501  0.22863822     0.28700
H443        H  0.38581227  0.65825540  0.28052574     0.19300
H444        H  0.40913487  0.75568515  0.19843674     0.19300
C445        C  0.07992958  0.78091662  0.26456058    -0.06500
C446        C  0.07756395  0.75100717  0.24532306    -0.17600
C447        C  0.10265481  0.75768375  0.22012659     0.10700
C448        C  0.13203481  0.79516044  0.21416739    -0.06400
C449        C  0.13376427  0.82538842  0.23247642    -0.17700
C450        C  0.10818748  0.81876062  0.25754058     0.10700
S451        S  0.09459339  0.71725408  0.19578565    -0.32600
S452        S  0.11423566  0.85965158  0.27999198    -0.32600
H453        H  0.10790161  0.84204070  0.30987202     0.28700
H454        H  0.10725712  0.73768136  0.16711904     0.28700
H455        H  0.05537515  0.72189534  0.24955790     0.19300
H456        H  0.15597265  0.85436459  0.22778369     0.19300
C457        C  0.12777700  0.83168033  0.45408705    -0.06500
C458        C  0.14219094  0.83388669  0.42323214    -0.17600
C459        C  0.11878229  0.81082851  0.39838834     0.10700
C460        C  0.07992125  0.78525401  0.40427200    -0.06400
C461        C  0.06579792  0.78208199  0.43532313    -0.17700
C462        C  0.08918159  0.80498609  0.46022839     0.10700
S463        S  0.13988465  0.81602615  0.35953778    -0.32600
S464        S  0.06746779  0.80023648  0.49878247    -0.32600
H465        H  0.09077200  0.83836010  0.50850299     0.28700
H466        H  0.11323562  0.77965041  0.34796590     0.28700
H467        H  0.17197037  0.85360010  0.41851615     0.19300
H468        H  0.03574175  0.76328312  0.43978705     0.19300
C469        C  0.33431892  0.69950433  0.78377282    -0.06500
C470        C  0.34397328  0.73781814  0.78095541    -0.17600
C471        C  0.32577443  0.74926648  0.75896555     0.10700
C472        C  0.29723151  0.72186407  0.73852661    -0.06400
C473        C  0.28641677  0.68322540  0.74214287    -0.17700
C474        C  0.30496027  0.67180983  0.76417796     0.10700
S475        S  0.34015099  0.79939120  0.75897521    -0.32600
S476        S  0.29146175  0.62195012  0.76459035    -0.32600
H477        H  0.32805121  0.62787663  0.77155848     0.28700
H478        H  0.30359632  0.79368845  0.75263595     0.28700
H479        H  0.36571514  0.75909953  0.79639132     0.19300
H480        H  0.26485268  0.66203682  0.72655286     0.19300
C481        C  0.45817468  0.72226850  0.83162065    -0.06500
C482        C  0.47850571  0.73154823  0.80272757    -0.17600
C483        C  0.01840672  0.75352014  0.80193373     0.10700
C484        C  0.03960763  0.76400044  0.83087847    -0.06400
C485        C  0.01912956  0.75366568  0.85971778    -0.17700
C486        C  0.47929097  0.73505229  0.86042721     0.10700
S487        S  0.03950283  0.76947398  0.76313259    -0.32600
S488        S  0.45787753  0.73188542  0.89889819    -0.32600
H489        H  0.42914193  0.73873271  0.88725110     0.28700
H490        H  0.06754944  0.80581757  0.77371455     0.28700
H491        H  0.46313948  0.72265266  0.78031326     0.19300
H492        H  0.03424452  0.76122849  0.88226044     0.19300
C493        C  0.16918299  0.79937910  0.78594264    -0.06500
C494        C  0.16051222  0.80313181  0.75420797    -0.17600
C495        C  0.18265973  0.80215042  0.72898661     0.10700
C496        C  0.21432681  0.79736264  0.73540892    -0.06400
C497        C  0.22370780  0.79462889  0.76707219    -0.17700
C498        C  0.20137307  0.79531040  0.79243760     0.10700
S499        S  0.16841526  0.80584420  0.68895521    -0.32600
S500        S  0.21209849  0.78712118  0.83251963    -0.32600
H501        H  0.24708309  0.78906702  0.82552893     0.28700
H502        H  0.20486280  0.82098024  0.67541846     0.28700
H503        H  0.13630591  0.80693072  0.74902707     0.19300
H504        H  0.24684339  0.78908849  0.77177539     0.19300
C505        C  0.20723752  0.91910150  0.06871770    -0.06500
C506        C  0.20200445  0.88304022  0.06030648    -0.17600
C507        C  0.19646241  0.85592326  0.08350051     0.10700
C508        C  0.19812105  0.86560075  0.11616360    -0.06400
C509        C  0.20234930  0.90136854  0.12450810    -0.17700
C510        C  0.20633533  0.92787988  0.10121302     0.10700
S511        S  0.18687171  0.80947483  0.06977272    -0.32600
S512        S  0.21312220  0.97337019  0.11460995    -0.32600
H513        H  0.19242029  0.97772073  0.08968043     0.28700
H514        H  0.16225178  0.78905004  0.09492165     0.28700
H515        H  0.20279556  0.87615352  0.03536663     0.19300
H516        H  0.20318226  0.90898072  0.14945674     0.19300
C517        C  0.29993642  0.63058175  0.11787937    -0.06500
C518        C  0.30281070  0.64240188  0.08602988    -0.17600
C519        C  0.29916324  0.61802795  0.06065465     0.10700
C520        C  0.29307364  0.58105062  0.06697661    -0.06400
C521        C  0.29181230  0.56972331  0.09865422    -0.17700
C522        C  0.29396747  0.59346245  0.12407173     0.10700
S523        S  0.30192344  0.63543520  0.02062962    -0.32600
S524        S  0.28520524  0.57316997  0.16346971    -0.32600
H525        H  0.26713081  0.59302905  0.17499737     0.28700
H526        H  0.31420763  0.61178521  0.00623859     0.28700
H527        H  0.30804333  0.67091696  0.08085265     0.19300
H528        H  0.28621907  0.54106679  0.10359320     0.19300
C529        C  0.15996518  0.86238987  0.88483680    -0.06500
C530        C  0.15966069  0.89692828  0.88405604    -0.17600
C531        C  0.17980249  0.92558058  0.90676220     0.10700
C532        C  0.20040807  0.91934990  0.93107714    -0.06400
C533        C  0.20147868  0.88512446  0.93138611    -0.17700
C534        C  0.18115046  0.85642514  0.90874457     0.10700
S535        S  0.18071162  0.97078069  0.90335103    -0.32600
S536        S  0.18266556  0.81257365  0.91207182    -0.32600
H537        H  0.14645067  0.78867070  0.89887929     0.28700
H538        H  0.15672581  0.96127762  0.87653635     0.28700
H539        H  0.14421931  0.90163643  0.86513538     0.19300
H540        H  0.21706225  0.88015353  0.95004720     0.19300
C541        C  0.29323810  0.57273530  0.92785707    -0.06500
C542        C  0.29294302  0.60737292  0.92735162    -0.17600
C543        C  0.31317839  0.63484043  0.90402547     0.10700
C544        C  0.33347800  0.62717073  0.88027528    -0.06400
C545        C  0.33285468  0.59216262  0.88033315    -0.17700
C546        C  0.31260784  0.56476873  0.90345977     0.10700
S547        S  0.31333533  0.67962025  0.90671391    -0.32600
S548        S  0.31140231  0.51956648  0.89978954    -0.32600
H549        H  0.27328655  0.49781302  0.90952990     0.28700
H550        H  0.34997828  0.70224237  0.89403699     0.28700
H551        H  0.27836884  0.61379393  0.94603201     0.19300
H552        H  0.34770109  0.58584722  0.86180577     0.19300
O553        O  0.79618661  0.03474466  0.03225666    -0.72100
O554        O  0.75147908  0.45699724  0.96771105    -0.72400
O555        O  0.79546174  0.03286185  0.96778858    -0.72200
O556        O  0.75353432  0.45826976  0.03175372    -0.72200
O557        O  0.70306736  0.46442333  0.03385087    -0.72200
O558        O  0.74436423  0.03793024  0.96664924    -0.72200
O559        O  0.70049979  0.46221802  0.96965580    -0.72200
O560        O  0.74573763  0.04100163  0.03068420    -0.72300
V561        V  0.77323044  0.99589839  0.99995495     1.35200
V562        V  0.72439561  0.50126637  0.00030668     1.35200
C563        C  0.77820817  0.05122623  0.04208957     0.77100
C564        C  0.71837950  0.44717938  0.95731548     0.77100
C565        C  0.77684108  0.04695617  0.95532411     0.77000
C566        C  0.72158769  0.44868184  0.04390031     0.77000
C567        C  0.64534075  0.30203548  0.81166161     0.02800
C568        C  0.60534172  0.27955474  0.81081517    -0.13400
C569        C  0.58243480  0.28637926  0.83236875     0.00300
C570        C  0.60084611  0.31438223  0.85637297    -0.11900
C571        C  0.64068057  0.33458944  0.85882318     0.02800
C572        C  0.66262227  0.32939518  0.83579151    -0.11300
H573        H  0.59231866  0.25706429  0.79311999     0.08300
H574        H  0.58441329  0.32059414  0.87336529     0.05900
H575        H  0.69332543  0.34722597  0.83647279     0.05700
C576        C  0.85510235  0.18982913  0.80780447     0.02800
C577        C  0.83514135  0.16348924  0.83185881    -0.13400
C578        C  0.85469512  0.15445673  0.85463508     0.00300
C579        C  0.89450189  0.17144148  0.85302190    -0.11900
C580        C  0.91543433  0.20046996  0.83082899     0.02800
C581        C  0.89519347  0.20900169  0.80797004    -0.11300
H582        H  0.80438077  0.15007741  0.83294293     0.08300
H583        H  0.90913584  0.16286699  0.86986126     0.05900
H584        H  0.91053541  0.23095812  0.79042857     0.05700
O585        O  0.54019125  0.29146601  0.30232854    -0.72100
O586        O  0.96382920  0.25371493  0.36790745    -0.72400
O587        O  0.54036746  0.29125815  0.36663781    -0.72200
O588        O  0.96418566  0.25617159  0.30345543    -0.72200
O589        O  0.96315579  0.20182072  0.30058452    -0.72200
O590        O  0.53840552  0.23635450  0.36719740    -0.72200
O591        O  0.96226572  0.19915331  0.36487968    -0.72200
O592        O  0.53927561  0.23719933  0.30294592    -0.72300
V593        V  0.50207699  0.27209338  0.33512479     1.35200
V594        V  0.00078889  0.21969655  0.33393562     1.35200
C595        C  0.55239985  0.27007203  0.29131709     0.77100
C596        C  0.95024580  0.21958195  0.37755024     0.77100
C597        C  0.55205057  0.27007865  0.37805438     0.77000
C598        C  0.95173990  0.22402803  0.29025682     0.77000
C599        C  0.84129937  0.19382611  0.19082800     0.02800
C600        C  0.83337803  0.16605710  0.16742351    -0.13400
C601        C  0.80604901  0.15855339  0.14376527     0.00300
C602        C  0.78646068  0.17943324  0.14380734    -0.11900
C603        C  0.79604059  0.20974008  0.16567259     0.02800
C604        C  0.82385107  0.21654169  0.18914892    -0.11300
H605        H  0.84895131  0.15053940  0.16749888     0.08300
H606        H  0.76386220  0.17195406  0.12661886     0.05900
H607        H  0.83209982  0.23946344  0.20634088     0.05700
C608        C  0.66139029  0.30367707  0.18939278     0.02800
C609        C  0.68375032  0.28574257  0.18947030    -0.13400
C610        C  0.71299761  0.29537514  0.16690235     0.00300
C611        C  0.71824264  0.32242313  0.14329591    -0.11900
C612        C  0.69457937  0.33895663  0.14201693     0.02800
C613        C  0.66694537  0.33003492  0.16557929    -0.11300
H614        H  0.67819164  0.26419486  0.20719665     0.08300
H615        H  0.74059780  0.33059156  0.12576035     0.05900
H616        H  0.64890873  0.34293337  0.16491532     0.05700
O617        O  0.71249188  0.25189498  0.63349110    -0.72100
O618        O  0.74761979  0.21376233  0.70165618    -0.72400
O619        O  0.70982109  0.25275395  0.69729470    -0.72200
O620        O  0.74813013  0.21077285  0.63726690    -0.72200
O621        O  0.80082643  0.26491207  0.63385176    -0.72200
O622        O  0.76523013  0.30393051  0.70137448    -0.72200
O623        O  0.80286657  0.26488242  0.69809859    -0.72200
O624        O  0.76513061  0.30589264  0.63737729    -0.72300
V625        V  0.73053907  0.23321411  0.66744632     1.35200
V626        V  0.78253880  0.28389853  0.66767022     1.35200
C627        C  0.73344802  0.28589475  0.62394049     0.77100
C628        C  0.78163505  0.23368565  0.71167041     0.77100
C629        C  0.73078437  0.28469742  0.71015606     0.77000
C630        C  0.77991094  0.23083340  0.62418167     0.77000
C631        C  0.80524821  0.14763713  0.52425535     0.02800
C632        C  0.83266007  0.16586120  0.50066460    -0.13400
C633        C  0.83856799  0.14457952  0.47719166     0.00300
C634        C  0.81646736  0.10442663  0.47741194    -0.11900
C635        C  0.78674746  0.08547466  0.49969994     0.02800
C636        C  0.78170298  0.10781658  0.52326402    -0.11300
H637        H  0.85019661  0.19669612  0.50111266     0.08300
H638        H  0.82254719  0.08816175  0.46010349     0.05900
H639        H  0.75939775  0.09453500  0.54088967     0.05700
C640        C  0.68962142  0.35918919  0.52772899     0.02800
C641        C  0.66300102  0.33756416  0.50420822    -0.13400
C642        C  0.65434320  0.35543570  0.47968629     0.00300
C643        C  0.67198494  0.39558541  0.47912093    -0.11900
C644        C  0.69908275  0.41806806  0.50260875     0.02800
C645        C  0.70864412  0.39922216  0.52600685    -0.11300
H646        H  0.64966897  0.30669802  0.50450245     0.08300
H647        H  0.66429577  0.40905519  0.46049674     0.05900
H648        H  0.73098756  0.41565505  0.54310422     0.05700
C649        C  0.76206365  0.04259971  0.49948460    -0.06500
C650        C  0.75068826  0.02324606  0.52878896    -0.17600
C651        C  0.72758150  0.48348113  0.53034074     0.10700
C652        C  0.71861380  0.46100043  0.50211779    -0.06400
C653        C  0.72954054  0.48023319  0.47276632    -0.17700
C654        C  0.74917596  0.02029903  0.47109153     0.10700
S655        S  0.70824339  0.46401476  0.56899481    -0.32600
S656        S  0.75388472  0.04053992  0.43196629    -0.32600
H657        H  0.74978486  0.07153632  0.44250452     0.28700
H658        H  0.67352022  0.43438892  0.55711288     0.28700
H659        H  0.75917264  0.03917170  0.55099029     0.19300
H660        H  0.72224169  0.46401487  0.45070359     0.19300
C661        C  0.80139445  0.17073328  0.54990034    -0.06500
C662        C  0.78307032  0.19158350  0.54282239    -0.17600
C663        C  0.77681579  0.21240384  0.56650256     0.10700
C664        C  0.79074565  0.21405655  0.59772470    -0.06400
C665        C  0.80996034  0.19396274  0.60465371    -0.17700
C666        C  0.81546728  0.17233687  0.58107365     0.10700
S667        S  0.74943332  0.23485534  0.55569641    -0.32600
S668        S  0.83966875  0.14668306  0.59243718    -0.32600
H669        H  0.85566484  0.14767048  0.56243944     0.28700
H670        H  0.72448920  0.22017539  0.58168560     0.28700
H671        H  0.77224635  0.19039348  0.51894103     0.19300
H672        H  0.81975983  0.19424653  0.62877223     0.19300
C673        C  0.72198231  0.30273370  0.59789218    -0.06500
C674        C  0.68362185  0.29295722  0.59491272    -0.17600
C675        C  0.67226503  0.31161594  0.57302237     0.10700
C676        C  0.69966640  0.33992385  0.55282690    -0.06400
C677        C  0.73781046  0.34922898  0.55553760    -0.17700
C678        C  0.74927784  0.33101764  0.57749349     0.10700
S679        S  0.62288309  0.29942951  0.57333533    -0.32600
S680        S  0.79923418  0.34510533  0.57733604    -0.32600
H681        H  0.79414986  0.30879750  0.58399244     0.28700
H682        H  0.62935083  0.33581583  0.56464895     0.28700
H683        H  0.66260987  0.27190251  0.61072702     0.19300
H684        H  0.75887291  0.37042340  0.53982778     0.19300
C685        C  0.73666619  0.27591102  0.16698986    -0.06500
C686        C  0.74500384  0.26413157  0.13783738    -0.17600
C687        C  0.76604482  0.24488050  0.13643764     0.10700
C688        C  0.77646824  0.23346733  0.16502944    -0.06400
C689        C  0.76823955  0.24553367  0.19415314    -0.17700
C690        C  0.75053026  0.26799156  0.19536013     0.10700
S691        S  0.78082333  0.23871195  0.09727273    -0.32600
S692        S  0.74931856  0.28783226  0.23376448    -0.32600
H693        H  0.75332409  0.32208790  0.22157339     0.28700
H694        H  0.81641923  0.24422373  0.10735307     0.28700
H695        H  0.73560412  0.27051592  0.11567189     0.19300
H696        H  0.77622724  0.23805219  0.21648839     0.19300
C697        C  0.92202621  0.20287815  0.40368499    -0.06500
C698        C  0.92512692  0.17677987  0.42394281    -0.17600
C699        C  0.89905869  0.15821039  0.44843205     0.10700
C700        C  0.86816625  0.16482958  0.45261407    -0.06400
C701        C  0.86537587  0.19155267  0.43293654    -0.17700
C702        C  0.89170783  0.21037658  0.40843516     0.10700
S703        S  0.90763531  0.12746233  0.47414108    -0.32600
S704        S  0.88375795  0.24174132  0.38310781    -0.32600
H705        H  0.89292249  0.22951198  0.35461085     0.28700
H706        H  0.89312785  0.13524490  0.50196152     0.31100
H707        H  0.94855612  0.17112888  0.42097690     0.19300
H708        H  0.84179700  0.19692918  0.43608870     0.19300
C709        C  0.92530832  0.21422887  0.26294572    -0.06500
C710        C  0.89122681  0.17927170  0.26227817    -0.17600
C711        C  0.86309020  0.17193301  0.23929230     0.10700
C712        C  0.86922476  0.20008826  0.21632211    -0.06400
C713        C  0.90374525  0.23449123  0.21652397    -0.17700
C714        C  0.93196239  0.24151981  0.23906069     0.10700
S715        S  0.81961276  0.12670538  0.24131878    -0.32600
S716        S  0.97665031  0.28526908  0.23525692    -0.32600
H717        H  0.99895611  0.26882573  0.24398693     0.28700
H718        H  0.79566771  0.13944522  0.22863845     0.28700
H719        H  0.88581207  0.15825559  0.28052591     0.19300
H720        H  0.90913468  0.25568513  0.19843671     0.19300
C721        C  0.57992932  0.28091676  0.26456055    -0.06500
C722        C  0.57756343  0.25100726  0.24532287    -0.17600
C723        C  0.60265439  0.25768389  0.22012643     0.10700
C724        C  0.63203454  0.29516054  0.21416736    -0.06400
C725        C  0.63376419  0.32538857  0.23247649    -0.17700
C726        C  0.60818738  0.31876072  0.25754071     0.10700
S727        S  0.59459286  0.21725425  0.19578540    -0.32600
S728        S  0.61423562  0.35965170  0.27999221    -0.32600
H729        H  0.60790144  0.34204070  0.30987221     0.28700
H730        H  0.60725667  0.23768163  0.16711884     0.28700
H731        H  0.55537472  0.22189577  0.24955753     0.19300
H732        H  0.65597243  0.35436446  0.22778387     0.19300
C733        C  0.62777681  0.33168036  0.45408704    -0.06500
C734        C  0.64219076  0.33388660  0.42323218    -0.17600
C735        C  0.61878209  0.31082844  0.39838841     0.10700
C736        C  0.57992102  0.28525408  0.40427201    -0.06400
C737        C  0.56579762  0.28208218  0.43532309    -0.17700
C738        C  0.58918135  0.30498626  0.46022832     0.10700
S739        S  0.63988450  0.31602604  0.35953793    -0.32600
S740        S  0.56746748  0.30023666  0.49878232    -0.32600
H741        H  0.59077178  0.33836024  0.50850288     0.28700
H742        H  0.61323548  0.27965030  0.34796605     0.28700
H743        H  0.67197024  0.35359993  0.41851618     0.19300
H744        H  0.53574156  0.26328348  0.43978698     0.19300
C745        C  0.83431853  0.19950436  0.78377284    -0.06500
C746        C  0.84397282  0.23781815  0.78095540    -0.17600
C747        C  0.82577393  0.24926643  0.75896554     0.10700
C748        C  0.79723099  0.22186397  0.73852666    -0.06400
C749        C  0.78641635  0.18322531  0.74214290    -0.17700
C750        C  0.80495990  0.17180980  0.76417798     0.10700
S751        S  0.84015032  0.29939109  0.75897522    -0.32600
S752        S  0.79146134  0.12195008  0.76459058    -0.32600
H753        H  0.82805081  0.12787663  0.77155869     0.28700
H754        H  0.80359563  0.29368824  0.75263594     0.28700
H755        H  0.86571467  0.25909962  0.79639137     0.19300
H756        H  0.76485225  0.16203671  0.72655289     0.19300
C757        C  0.95817429  0.22226869  0.83162074    -0.06500
C758        C  0.97850531  0.23154836  0.80272764    -0.17600
C759        C  0.51840637  0.25352028  0.80193375     0.10700
C760        C  0.53960726  0.26400047  0.83087850    -0.06400
C761        C  0.51912917  0.25366582  0.85971779    -0.17700
C762        C  0.97929053  0.23505243  0.86042733     0.10700
S763        S  0.53950244  0.26947443  0.76313263    -0.32600
S764        S  0.95787695  0.23188536  0.89889835    -0.32600
H765        H  0.92914131  0.23873260  0.88725130     0.28700
H766        H  0.56754924  0.30581788  0.77371468     0.28700
H767        H  0.96313904  0.22265275  0.78031337     0.19300
H768        H  0.53424416  0.26122873  0.88226055     0.19300
C769        C  0.66918256  0.29937910  0.78594266    -0.06500
C770        C  0.66051180  0.30313195  0.75420800    -0.17600
C771        C  0.68265931  0.30215052  0.72898661     0.10700
C772        C  0.71432629  0.29736253  0.73540892    -0.06400
C773        C  0.72370719  0.29462858  0.76707218    -0.17700
C774        C  0.70137254  0.29531021  0.79243760     0.10700
S775        S  0.66841476  0.30584438  0.68895525    -0.32600
S776        S  0.71209790  0.28712080  0.83251961    -0.32600
H777        H  0.74708263  0.28906690  0.82552894     0.28700
H778        H  0.70486226  0.32098015  0.67541847     0.28700
H779        H  0.63630575  0.30693094  0.74902719     0.19300
H780        H  0.74684263  0.28908796  0.77177535     0.19300
C781        C  0.70723750  0.41910157  0.06871769    -0.06500
C782        C  0.70200431  0.38304022  0.06030647    -0.17600
C783        C  0.69646223  0.35592325  0.08350051     0.10700
C784        C  0.69812081  0.36560073  0.11616359    -0.06400
C785        C  0.70234922  0.40136860  0.12450810    -0.17700
C786        C  0.70633543  0.42788000  0.10121301     0.10700
S787        S  0.68687128  0.30947474  0.06977273    -0.32600
S788        S  0.71312241  0.47337035  0.11460994    -0.32600
H789        H  0.69242062  0.47772100  0.08968037     0.28700
H790        H  0.66225136  0.28905006  0.09492170     0.28700
H791        H  0.70279539  0.37615349  0.03536666     0.19300
H792        H  0.70318223  0.40898079  0.14945674     0.19300
C793        C  0.79993628  0.13058173  0.11787945    -0.06500
C794        C  0.80281059  0.14240193  0.08602994    -0.17600
C795        C  0.79916313  0.11802799  0.06065470     0.10700
C796        C  0.79307351  0.08105065  0.06697668    -0.06400
C797        C  0.79181219  0.06972338  0.09865427    -0.17700
C798        C  0.79396728  0.09346241  0.12407183     0.10700
S799        S  0.80192362  0.13543536  0.02062965    -0.32600
S800        S  0.78520483  0.07316990  0.16346985    -0.32600
H801        H  0.76713038  0.09302901  0.17499740     0.28700
H802        H  0.81420765  0.11178522  0.00623865     0.28700
H803        H  0.80804326  0.17091683  0.08085276     0.19300
H804        H  0.78621889  0.04106652  0.10359326     0.19300
C805        C  0.65996478  0.36238975  0.88483683    -0.06500
C806        C  0.65966042  0.39692822  0.88405605    -0.17600
C807        C  0.67980233  0.42558055  0.90676218     0.10700
C808        C  0.70040785  0.41934978  0.93107711    -0.06400
C809        C  0.70147841  0.38512435  0.93138601    -0.17700
C810        C  0.68115015  0.35642503  0.90874452     0.10700
S811        S  0.68071179  0.47078082  0.90335101    -0.32600
S812        S  0.68266514  0.31257351  0.91207182    -0.32600
H813        H  0.64645023  0.28867058  0.89887932     0.28700
H814        H  0.65672695  0.46127824  0.87653572     0.28700
H815        H  0.64421900  0.40163639  0.86513540     0.19300
H816        H  0.71706213  0.38015336  0.95004723     0.19300
C817        C  0.79323793  0.07273541  0.92785725    -0.06500
C818        C  0.79294297  0.10737310  0.92735185    -0.17600
C819        C  0.81317830  0.13484060  0.90402570     0.10700
C820        C  0.83347770  0.12717081  0.88027539    -0.06400
C821        C  0.83285427  0.09216261  0.88033316    -0.17700
C822        C  0.81260756  0.06476876  0.90345988     0.10700
S823        S  0.81333528  0.17962044  0.90671416    -0.32600
S824        S  0.81140209  0.01956649  0.89978959    -0.32600
H825        H  0.77328635  0.99781298  0.90952998     0.28700
H826        H  0.84997809  0.20224257  0.89403699     0.28700
H827        H  0.77836882  0.11379424  0.94603241     0.19300
H828        H  0.84770044  0.08584721  0.86180581     0.19300
O829        O  0.79618666  0.53474464  0.03225645    -0.72100
O830        O  0.75147922  0.95699734  0.96771120    -0.72400
O831        O  0.79546167  0.53286170  0.96778842    -0.72200
O832        O  0.75353430  0.95826975  0.03175375    -0.72200
O833        O  0.70306738  0.96442338  0.03385092    -0.72200
O834        O  0.74436420  0.53793015  0.96664909    -0.72200
O835        O  0.70049993  0.96221816  0.96965579    -0.72200
O836        O  0.74573771  0.54100166  0.03068409    -0.72300
V837        V  0.77323039  0.49589832  0.99995481     1.35200
V838        V  0.72439563  0.00126642  0.00030675     1.35200
C839        C  0.77820826  0.55122620  0.04208946     0.77100
C840        C  0.71837968  0.94717952  0.95731554     0.77100
C841        C  0.77684102  0.54695601  0.95532393     0.77000
C842        C  0.72158768  0.94868185  0.04390034     0.77000
C843        C  0.64534127  0.80203559  0.81166157     0.02800
C844        C  0.60534223  0.77955482  0.81081514    -0.13400
C845        C  0.58243529  0.78637933  0.83236873     0.00300
C846        C  0.60084661  0.81438231  0.85637294    -0.11900
C847        C  0.64068107  0.83458961  0.85882313     0.02800
C848        C  0.66262276  0.82939533  0.83579144    -0.11300
H849        H  0.59231917  0.75706435  0.79311997     0.08300
H850        H  0.58441374  0.82059419  0.87336536     0.05900
H851        H  0.69332597  0.84722619  0.83647268     0.05700
C852        C  0.85510263  0.68982900  0.80780441     0.02800
C853        C  0.83514157  0.66348905  0.83185870    -0.13400
C854        C  0.85469534  0.65445657  0.85463498     0.00300
C855        C  0.89450213  0.67144128  0.85302184    -0.11900
C856        C  0.91543459  0.70046981  0.83082894     0.02800
C857        C  0.89519374  0.70900156  0.80797001    -0.11300
H858        H  0.80438112  0.65007731  0.83294282     0.08300
H859        H  0.90913594  0.66286678  0.86986108     0.05900
H860        H  0.91053571  0.73095803  0.79042855     0.05700
O861        O  0.54019149  0.79146590  0.30232853    -0.72100
O862        O  0.96382933  0.75371473  0.36790747    -0.72400
O863        O  0.54036776  0.79125805  0.36663780    -0.72200
O864        O  0.96418582  0.75617142  0.30345543    -0.72200
O865        O  0.96315597  0.70182056  0.30058452    -0.72200
O866        O  0.53840570  0.73635435  0.36719747    -0.72200
O867        O  0.96226587  0.69915312  0.36487966    -0.72200
O868        O  0.53927582  0.73719921  0.30294592    -0.72300
V869        V  0.50207729  0.77209330  0.33512479     1.35200
V870        V  0.00078906  0.71969639  0.33393566     1.35200
C871        C  0.55240007  0.77007193  0.29131708     0.77100
C872        C  0.95024592  0.71958172  0.37755023     0.77100
C873        C  0.55205084  0.77007854  0.37805440     0.77000
C874        C  0.95174008  0.72402787  0.29025679     0.77000
C875        C  0.84129966  0.69382611  0.19082791     0.02800
C876        C  0.83337834  0.66605718  0.16742338    -0.13400
C877        C  0.80604926  0.65855339  0.14376519     0.00300
C878        C  0.78646103  0.67943332  0.14380730    -0.11900
C879        C  0.79604093  0.70974012  0.16567253     0.02800
C880        C  0.82385140  0.71654175  0.18914889    -0.11300
H881        H  0.84895178  0.65053939  0.16749866     0.08300
H882        H  0.76386243  0.67195416  0.12661867     0.05900
H883        H  0.83210014  0.73946334  0.20634074     0.05700
C884        C  0.66139049  0.80367696  0.18939272     0.02800
C885        C  0.68375055  0.78574248  0.18947024    -0.13400
C886        C  0.71299789  0.79537510  0.16690232     0.00300
C887        C  0.71824294  0.82242316  0.14329593    -0.11900
C888        C  0.69457964  0.83895664  0.14201694     0.02800
C889        C  0.66694556  0.83003484  0.16557925    -0.11300
H890        H  0.67819192  0.76419483  0.20719662     0.08300
H891        H  0.74059814  0.83059166  0.12576041     0.05900
H892        H  0.64890887  0.84293325  0.16491524     0.05700
O893        O  0.71249256  0.75189532  0.63349102    -0.72100
O894        O  0.74762029  0.71376249  0.70165609    -0.72400
O895        O  0.70982168  0.75275426  0.69729452    -0.72200
O896        O  0.74813076  0.71077306  0.63726689    -0.72200
O897        O  0.80082704  0.76491232  0.63385177    -0.72200
O898        O  0.76523077  0.80393076  0.70137448    -0.72200
O899        O  0.80286710  0.76488256  0.69809855    -0.72200
O900        O  0.76513127  0.80589299  0.63737729    -0.72300
V901        V  0.73053966  0.73321437  0.66744623     1.35200
V902        V  0.78253942  0.78389878  0.66767020     1.35200
C903        C  0.73344869  0.78589512  0.62394045     0.77100
C904        C  0.78163556  0.73368577  0.71167033     0.77100
C905        C  0.73078497  0.78469768  0.71015595     0.77000
C906        C  0.77991162  0.73083361  0.62418172     0.77000
C907        C  0.80524861  0.64763703  0.52425549     0.02800
C908        C  0.83266031  0.66586105  0.50066464    -0.13400
C909        C  0.83856812  0.64457932  0.47719167     0.00300
C910        C  0.81646738  0.60442645  0.47741192    -0.11900
C911        C  0.78674763  0.58547455  0.49970003     0.02800
C912        C  0.78170333  0.60781646  0.52326423    -0.11300
H913        H  0.85019690  0.69669605  0.50111265     0.08300
H914        H  0.82254712  0.58816155  0.46010340     0.05900
H915        H  0.75939830  0.59453499  0.54088985     0.05700
C916        C  0.68962181  0.85918939  0.52772897     0.02800
C917        C  0.66300139  0.83756432  0.50420822    -0.13400
C918        C  0.65434347  0.85543578  0.47968628     0.00300
C919        C  0.67198519  0.89558549  0.47912090    -0.11900
C920        C  0.69908299  0.91806817  0.50260871     0.02800
C921        C  0.70864446  0.89922238  0.52600684    -0.11300
H922        H  0.64966938  0.80669816  0.50450243     0.08300
H923        H  0.66429601  0.90905519  0.46049680     0.05900
H924        H  0.73098778  0.91565526  0.54310411     0.05700
C925        C  0.76206379  0.54259962  0.49948471    -0.06500
C926        C  0.75068843  0.52324598  0.52878910    -0.17600
C927        C  0.72758151  0.98348123  0.53034066     0.10700
C928        C  0.71861389  0.96100052  0.50211771    -0.06400
C929        C  0.72954056  0.98023324  0.47276619    -0.17700
C930        C  0.74917599  0.52029896  0.47109163     0.10700
S931        S  0.70824345  0.96401488  0.56899475    -0.32600
S932        S  0.75388487  0.54053977  0.43196632    -0.32600
H933        H  0.74978483  0.57153610  0.44250442     0.28700
H934        H  0.67352036  0.93438893  0.55711282     0.28700
H935        H  0.75917281  0.53917144  0.55099025     0.19300
H936        H  0.72224177  0.96401496  0.45070358     0.19300
C937        C  0.80139493  0.67073323  0.54990050    -0.06500
C938        C  0.78307203  0.69158456  0.54282230    -0.17600
C939        C  0.77681766  0.71240504  0.56650244     0.10700
C940        C  0.79074641  0.71405671  0.59772484    -0.06400
C941        C  0.80995971  0.69396161  0.60465414    -0.17700
C942        C  0.81546665  0.67233579  0.58107406     0.10700
S943        S  0.74943645  0.73485776  0.55569593    -0.32600
S944        S  0.83966658  0.64668059  0.59243790    -0.32600
H945        H  0.85566369  0.64766856  0.56244052     0.28700
H946        H  0.72449185  0.72017823  0.58168486     0.28700
H947        H  0.77224889  0.69039534  0.51894080     0.19300
H948        H  0.81975815  0.69424444  0.62877286     0.19300
C949        C  0.72198295  0.80273409  0.59789216    -0.06500
C950        C  0.68362240  0.79295730  0.59491251    -0.17600
C951        C  0.67226549  0.81161594  0.57302216     0.10700
C952        C  0.69966687  0.83992409  0.55282686    -0.06400
C953        C  0.73781101  0.84922963  0.55553781    -0.17700
C954        C  0.74927848  0.83101839  0.57749372     0.10700
S955        S  0.62288340  0.79942907  0.57333486    -0.32600
S956        S  0.79923499  0.84510689  0.57733674    -0.32600
H957        H  0.79415127  0.80879924  0.58399288     0.28700
H958        H  0.62935088  0.83581535  0.56464868     0.28700
H959        H  0.66261036  0.77190234  0.61072669     0.19300
H960        H  0.75887352  0.87042436  0.53982821     0.19300
C961        C  0.73666658  0.77591106  0.16698983    -0.06500
C962        C  0.74500424  0.76413163  0.13783736    -0.17600
C963        C  0.76604510  0.74488045  0.13643757     0.10700
C964        C  0.77646861  0.73346735  0.16502939    -0.06400
C965        C  0.76824001  0.74553375  0.19415309    -0.17700
C966        C  0.75053065  0.76799156  0.19536008     0.10700
S967        S  0.78082361  0.73871204  0.09727258    -0.32600
S968        S  0.74931909  0.78783239  0.23376433    -0.32600
H969        H  0.75332463  0.82208798  0.22157310     0.28700
H970        H  0.81641941  0.74422357  0.10735291     0.28700
H971        H  0.73560452  0.77051605  0.11567185     0.19300
H972        H  0.77622780  0.73805235  0.21648835     0.19300
C973        C  0.92202625  0.70287780  0.40368492    -0.06500
C974        C  0.92512695  0.67677946  0.42394270    -0.17600
C975        C  0.89905879  0.65821010  0.44843203     0.10700
C976        C  0.86816633  0.66482926  0.45261404    -0.06400
C977        C  0.86537591  0.69155229  0.43293649    -0.17700
C978        C  0.89170786  0.71037622  0.40843510     0.10700
S979        S  0.90763548  0.62746214  0.47414110    -0.32600
S980        S  0.88375810  0.74174110  0.38310784    -0.32600
H981        H  0.89292264  0.72951182  0.35461085     0.28700
H982        H  0.89312799  0.63524473  0.50196151     0.31100
H983        H  0.94855607  0.67112846  0.42097677     0.19300
H984        H  0.84179702  0.69692881  0.43608871     0.19300
C985        C  0.92530852  0.71422871  0.26294565    -0.06500
C986        C  0.89122703  0.67927152  0.26227799    -0.17600
C987        C  0.86309041  0.67193287  0.23929214     0.10700
C988        C  0.86922497  0.70008820  0.21632204    -0.06400
C989        C  0.90374544  0.73449114  0.21652395    -0.17700
C990        C  0.93196253  0.74151968  0.23906066     0.10700
S991        S  0.81961295  0.62670523  0.24131854    -0.32600
S992        S  0.97665033  0.78526901  0.23525693    -0.32600
H993        H  0.99895625  0.76882580  0.24398694     0.28700
H994        H  0.79566790  0.63944508  0.22863820     0.28700
H995        H  0.88581230  0.65825533  0.28052570     0.19300
H996        H  0.90913491  0.75568509  0.19843670     0.19300
C997        C  0.57992955  0.78091664  0.26456056    -0.06500
C998        C  0.57756390  0.75100717  0.24532303    -0.17600
C999        C  0.60265482  0.75768374  0.22012659     0.10700
C1000       C  0.63203479  0.79516044  0.21416735    -0.06400
C1001       C  0.63376432  0.82538843  0.23247642    -0.17700
C1002       C  0.60818751  0.81876062  0.25754061     0.10700
S1003       S  0.59459349  0.71725408  0.19578567    -0.32600
S1004       S  0.61423554  0.85965157  0.27999197    -0.32600
H1005       H  0.60790149  0.84204074  0.30987203     0.28700
H1006       H  0.60725697  0.73768134  0.16711903     0.28700
H1007       H  0.55537514  0.72189542  0.24955786     0.19300
H1008       H  0.65597264  0.85436452  0.22778369     0.19300
C1009       C  0.62777710  0.83168041  0.45408700    -0.06500
C1010       C  0.64219103  0.83388670  0.42323212    -0.17600
C1011       C  0.61878237  0.81082851  0.39838833     0.10700
C1012       C  0.57992135  0.78525401  0.40427198    -0.06400
C1013       C  0.56579799  0.78208201  0.43532307    -0.17700
C1014       C  0.58918167  0.80498618  0.46022829     0.10700
S1015       S  0.63988458  0.81602617  0.35953773    -0.32600
S1016       S  0.56746785  0.80023647  0.49878232    -0.32600
H1017       H  0.59077209  0.83836005  0.50850292     0.28700
H1018       H  0.61323567  0.77965034  0.34796594     0.28700
H1019       H  0.67197055  0.85360014  0.41851614     0.19300
H1020       H  0.53574194  0.76328318  0.43978695     0.19300
C1021       C  0.83431885  0.69950433  0.78377282    -0.06500
C1022       C  0.84397330  0.73781815  0.78095539    -0.17600
C1023       C  0.82577446  0.74926648  0.75896550     0.10700
C1024       C  0.79723145  0.72186406  0.73852661    -0.06400
C1025       C  0.78641669  0.68322539  0.74214290    -0.17700
C1026       C  0.80496024  0.67180984  0.76417795     0.10700
S1027       S  0.84015109  0.79939120  0.75897520    -0.32600
S1028       S  0.79146160  0.62195011  0.76459057    -0.32600
H1029       H  0.82805110  0.62787659  0.77155849     0.28700
H1030       H  0.80359643  0.79368847  0.75263596     0.28700
H1031       H  0.86571509  0.75909944  0.79639124     0.19300
H1032       H  0.76485255  0.66203679  0.72655294     0.19300
C1033       C  0.95817458  0.72226849  0.83162066    -0.06500
C1034       C  0.97850556  0.73154806  0.80272755    -0.17600
C1035       C  0.51840683  0.75352033  0.80193374     0.10700
C1036       C  0.53960774  0.76400051  0.83087848    -0.06400
C1037       C  0.51912965  0.75366572  0.85971776    -0.17700
C1038       C  0.97929086  0.73505227  0.86042721     0.10700
S1039       S  0.53950288  0.76947429  0.76313259    -0.32600
S1040       S  0.95787730  0.73188518  0.89889819    -0.32600
H1041       H  0.92914169  0.73873247  0.88725114     0.28700
H1042       H  0.56754963  0.80581779  0.77371457     0.28700
H1043       H  0.96313937  0.72265244  0.78031340     0.19300
H1044       H  0.53424465  0.76122861  0.88226052     0.19300
C1045       C  0.66918309  0.79937921  0.78594259    -0.06500
C1046       C  0.66051231  0.80313197  0.75420792    -0.17600
C1047       C  0.68265972  0.80215048  0.72898649     0.10700
C1048       C  0.71432683  0.79736269  0.73540882    -0.06400
C1049       C  0.72370783  0.79462889  0.76707208    -0.17700
C1050       C  0.70137313  0.79531040  0.79243753     0.10700
S1051       S  0.66841530  0.80584447  0.68895508    -0.32600
S1052       S  0.71209858  0.78712120  0.83251958    -0.32600
H1053       H  0.74708318  0.78906702  0.82552888     0.28700
H1054       H  0.70486281  0.82098026  0.67541832     0.28700
H1055       H  0.63630609  0.80693099  0.74902707     0.19300
H1056       H  0.74684349  0.78908849  0.77177526     0.19300
C1057       C  0.70723751  0.91910153  0.06871769    -0.06500
C1058       C  0.70200454  0.88304028  0.06030647    -0.17600
C1059       C  0.69646247  0.85592330  0.08350050     0.10700
C1060       C  0.69812106  0.86560074  0.11616359    -0.06400
C1061       C  0.70234935  0.90136854  0.12450810    -0.17700
C1062       C  0.70633539  0.92787989  0.10121302     0.10700
S1063       S  0.68687157  0.80947481  0.06977271    -0.32600
S1064       S  0.71312231  0.97337020  0.11460997    -0.32600
H1065       H  0.69242038  0.97772075  0.08968046     0.28700
H1066       H  0.66225180  0.78905010  0.09492176     0.28700
H1067       H  0.70279572  0.87615361  0.03536666     0.19300
H1068       H  0.70318234  0.90898072  0.14945677     0.19300
C1069       C  0.79993648  0.63058173  0.11787936    -0.06500
C1070       C  0.80281066  0.64240190  0.08602985    -0.17600
C1071       C  0.79916330  0.61802795  0.06065463     0.10700
C1072       C  0.79307370  0.58105063  0.06697658    -0.06400
C1073       C  0.79181240  0.56972332  0.09865418    -0.17700
C1074       C  0.79396757  0.59346245  0.12407170     0.10700
S1075       S  0.80192354  0.63543521  0.02062961    -0.32600
S1076       S  0.78520536  0.57316998  0.16346968    -0.32600
H1077       H  0.76713079  0.59302894  0.17499730     0.28700
H1078       H  0.81420743  0.61178500  0.00623852     0.28700
H1079       H  0.80804313  0.67091665  0.08085268     0.19300
H1080       H  0.78621915  0.54106679  0.10359314     0.19300
C1081       C  0.65996527  0.86238994  0.88483678    -0.06500
C1082       C  0.65966079  0.89692836  0.88405603    -0.17600
C1083       C  0.67980260  0.92558069  0.90676218     0.10700
C1084       C  0.70040812  0.91934994  0.93107715    -0.06400
C1085       C  0.70147866  0.88512447  0.93138615    -0.17700
C1086       C  0.68115055  0.85642521  0.90874454     0.10700
S1087       S  0.68071185  0.97078087  0.90335101    -0.32600
S1088       S  0.68266546  0.81257364  0.91207184    -0.32600
H1089       H  0.64645059  0.78867075  0.89887923     0.28700
H1090       H  0.65672596  0.96127777  0.87653638     0.28700
H1091       H  0.64421940  0.90163650  0.86513536     0.19300
H1092       H  0.71706215  0.88015348  0.95004734     0.19300
C1093       C  0.79323794  0.57273520  0.92785704    -0.06500
C1094       C  0.79294287  0.60737284  0.92735158    -0.17600
C1095       C  0.81317837  0.63484040  0.90402550     0.10700
C1096       C  0.83347791  0.62717068  0.88027529    -0.06400
C1097       C  0.83285453  0.59216253  0.88033313    -0.17700
C1098       C  0.81260771  0.56476861  0.90345975     0.10700
S1099       S  0.81333542  0.67962027  0.90671393    -0.32600
S1100       S  0.81140226  0.51956634  0.89978956    -0.32600
H1101       H  0.77328652  0.49781282  0.90952995     0.28700
H1102       H  0.84997833  0.70224238  0.89403693     0.28700
H1103       H  0.77836861  0.61379383  0.94603196     0.19300
H1104       H  0.84770095  0.58584716  0.86180570     0.19300
loop_ 
_geom_bond_atom_site_label_1 
_geom_bond_atom_site_label_2 
_geom_bond_distance 
_geom_bond_site_symmetry_2 
_ccdc_geom_bond_type 
O1            V9   1.920   1_544  S
O1           C11   1.269       .  A
O2          V285   1.916       .  S
O2           C12   1.269       .  A
O3            V9   1.883   1_545  S
O3           C13   1.260       .  A
O4          V285   1.881   1_554  S
O4           C14   1.258       .  A
O5           V10   1.919       .  S
O5           C14   1.269       .  A
O6          V286   1.916   1_556  S
O6           C13   1.268       .  A
O7           V10   1.880   1_556  S
O7           C12   1.259       .  A
O8          V286   1.882       .  S
O8           C11   1.258       .  A
V9          O278   1.916       .  S
V9          O280   1.881   1_556  S
V9          V286   2.088   1_566  T
V10         O282   1.916   1_554  S
V10         O284   1.882       .  S
V10         V285   2.088   1_554  T
C11         C244   1.472       .  S
C12         C256   1.475       .  S
C13         C265   1.476       .  S
C14         C229   1.473       .  S
C15         C217   1.484       .  S
C15          C16   1.409       .  A
C15          C20   1.398       .  A
C16          C17   1.413       .  A
C16          H21   1.082       .  S
C17         C208   1.506       .  S
C17          C18   1.413       .  A
C18          C19   1.403       .  A
C18          H22   1.083       .  S
C19         C253   1.475       .  S
C19          C20   1.393       .  A
C20          H23   1.084       .  S
C24         C193   1.483       .  S
C24          C25   1.400       .  A
C24          C29   1.408       .  A
C25          C26   1.399       .  A
C25          H30   1.084       .  S
C26         C268   1.477       .  S
C26          C27   1.404       .  A
C27          C28   1.408       .  A
C27          H31   1.083       .  S
C28         C205   1.502       .  S
C28          C29   1.410       .  A
C29          H32   1.083       .  S
O33          V41   1.922       .  S
O33          C43   1.270       .  A
O34         V593   1.925       .  S
O34          C44   1.272       .  A
O35          V41   1.883       .  S
O35          C45   1.258       .  A
O36         V593   1.881       .  S
O36          C46   1.259       .  A
O37          V42   1.922       .  S
O37          C46   1.270       .  A
O38         V594   1.920       .  S
O38          C45   1.269       .  A
O39          V42   1.878       .  S
O39          C44   1.259       .  A
O40         V594   1.878       .  S
O40          C43   1.260       .  A
V41         O586   1.925   1_455  S
V41         O588   1.881   1_455  S
V41         V594   2.086       .  T
V42         O590   1.920       .  S
V42         O592   1.878       .  S
V42         V593   2.086       .  T
C43         C169   1.487       .  S
C44         C145   1.484       .  S
C45         C184   1.471       .  S
C46         C157   1.479       .  S
C47         C160   1.482       .  S
C47          C48   1.397       .  A
C47          C52   1.406       .  A
C48          C49   1.401       .  A
C48          H53   1.084       .  S
C49         C241   1.490       .  S
C49          C50   1.411       .  A
C50          C51   1.415       .  A
C50          H54   1.081       .  S
C51         C136   1.512       .  S
C51          C52   1.414       .  A
C52          H55   1.082       .  S
C56         C172   1.484       .  S
C56          C57   1.408       .  A
C56          C61   1.397       .  A
C57          C58   1.411       .  A
C57          H62   1.082       .  S
C58         C133   1.506       .  S
C58          C59   1.413       .  A
C59          C60   1.410       .  A
C59          H63   1.083       .  S
C60         C232   1.486       .  S
C60          C61   1.399       .  A
C61          H64   1.084       .  S
O65          V73   1.918       .  S
O65          C75   1.271       .  A
O66          V73   1.922       .  S
O66          C76   1.271       .  A
O67          V73   1.877       .  S
O67          C77   1.257       .  A
O68          V73   1.882       .  S
O68          C78   1.258       .  A
O69          V74   1.920       .  S
O69          C78   1.269       .  A
O70          V74   1.918       .  S
O70          C77   1.269       .  A
O71          V74   1.877       .  S
O71          C76   1.258       .  A
O72          V74   1.877       .  S
O72          C75   1.257       .  A
V73          V74   2.085       .  T
C75         C121   1.479       .  S
C76         C196   1.481       .  S
C77         C220   1.467       .  S
C78         C112   1.470       .  S
C79         C109   1.475       .  S
C79          C80   1.396       .  A
C79          C84   1.404       .  A
C80          C81   1.397       .  A
C80          H85   1.084       .  S
C81         C148   1.484       .  S
C81          C82   1.410       .  A
C82          C83   1.414       .  A
C82          H86   1.081       .  S
C83          C97   1.509       .  S
C83          C84   1.414       .  A
C84          H87   1.083       .  S
C88         C124   1.482       .  S
C88          C89   1.398       .  A
C88          C93   1.405       .  A
C89          C90   1.398       .  A
C89          H94   1.084       .  S
C90         C181   1.481       .  S
C90          C91   1.410       .  A
C91          C92   1.414       .  A
C91          H95   1.083       .  S
C92         C100   1.506       .  S
C92          C93   1.409       .  A
C93          H96   1.082       .  S
C97          C98   1.409       .  A
C97         C102   1.422       .  A
C98         C375   1.402   1_545  A
C98         H107   1.082       .  S
C99         C100   1.420       .  A
C99         C374   1.402       .  A
C99         S103   1.806       .  S
C100        C101   1.408       .  A
C101        C378   1.406       .  A
C101        H108   1.083       .  S
C102        C377   1.406   1_545  A
C102        S104   1.804       .  S
S103        H106   1.407       .  S
S104        H105   1.407       .  S
C109        C110   1.399       .  A
C109        C114   1.414       .  A
C110        C111   1.397       .  A
C110        H119   1.084       .  S
C111        C112   1.413       .  A
C111        S115   1.800       .  S
C112        C113   1.402       .  A
C113        C114   1.402       .  A
C113        H120   1.084       .  S
C114        S116   1.804       .  S
S115        H118   1.404       .  S
S116        H117   1.405       .  S
C121        C122   1.403       .  A
C121        C126   1.420       .  A
C122        C123   1.402       .  A
C122        H131   1.084       .  S
C123        C124   1.416       .  A
C123        S127   1.804       .  S
C124        C125   1.399       .  A
C125        C126   1.394       .  A
C125        H132   1.084       .  S
C126        S128   1.806       .  S
S127        H130   1.406       .  S
S128        H129   1.403       .  S
C133        C134   1.408       .  A
C133        C138   1.418       .  A
C134        C135   1.406       .  A
C134        H143   1.083       .  S
C135        C136   1.422       .  A
C135        S139   1.804       .  S
C136        C137   1.411       .  A
C137        C138   1.404       .  A
C137        H144   1.082       .  S
C138        S140   1.805       .  S
S139        H142   1.407       .  S
S140        H141   1.407       .  S
C145        C146   1.408       .  A
C145        C150   1.412       .  A
C146        C147   1.397       .  A
C146        H155   1.084       .  S
C147        C148   1.410       .  A
C147        S151   1.804       .  S
C148        C149   1.408       .  A
C149        C150   1.405       .  A
C149        H156   1.084       .  S
C150        S152   1.801       .  S
S151        H154   1.407       .  S
S152        H153   1.407       .  S
C157        C158   1.402       .  A
C157        C162   1.416       .  A
C158        C159   1.405       .  A
C158        H167   1.084       .  S
C159        C160   1.418       .  A
C159        S163   1.804       .  S
C160        C161   1.399       .  A
C161        C162   1.397       .  A
C161        H168   1.084       .  S
C162        S164   1.803       .  S
S163        H166   1.405       .  S
S164        H165   1.406       .  S
C169        C170   1.409       .  A
C169        C174   1.414       .  A
C170        C171   1.396       .  A
C170        H179   1.084       .  S
C171        C172   1.409       .  A
C171        S175   1.805       .  S
C172        C173   1.408       .  A
C173        C174   1.404       .  A
C173        H180   1.084       .  S
C174        S176   1.801       .  S
S175        H178   1.407       .  S
S176        H177   1.403       .  S
C181        C182   1.403       .  A
C181        C186   1.414       .  A
C182        C183   1.401       .  A
C182        H191   1.084       .  S
C183        C184   1.411       .  A
C183        S187   1.803       .  S
C184        C185   1.402       .  A
C185        C186   1.401       .  A
C185        H192   1.084       .  S
C186        S188   1.804       .  S
S187        H190   1.406       .  S
S188        H189   1.406       .  S
C193        C194   1.399       .  A
C193        C198   1.418       .  A
C194        C195   1.394       .  A
C194        H203   1.084       .  S
C195        C196   1.420       .  A
C195        S199   1.805       .  S
C196        C197   1.403       .  A
C197        C198   1.404       .  A
C197        H204   1.084       .  S
C198        S200   1.803       .  S
S199        H202   1.403       .  S
S200        H201   1.406       .  S
C205        C206   1.408       .  A
C205        C210   1.418       .  A
C206        C759   1.405       .  A
C206        H215   1.083       .  S
C207        C208   1.422       .  A
C207        C758   1.405   1_455  A
C207        S211   1.804       .  S
C208        C209   1.409       .  A
C209        C762   1.400   1_455  A
C209        H216   1.083       .  S
C210        C761   1.400       .  A
C210        S212   1.805       .  S
S211        H214   1.407       .  S
S212        H213   1.407       .  S
C217        C218   1.404       .  A
C217        C222   1.415       .  A
C218        C219   1.398       .  A
C218        H227   1.084       .  S
C219        C220   1.411       .  A
C219        S223   1.805       .  S
C220        C221   1.400       .  A
C221        C222   1.403       .  A
C221        H228   1.081       .  S
C222        S224   1.808       .  S
S223        H226   1.406       .  S
S224        H225   1.407       .  S
C229        C230   1.404       .  A
C229        C234   1.410       .  A
C230        C231   1.400       .  A
C230        H239   1.085       .  S
C231        C232   1.414       .  A
C231        S235   1.804       .  S
C232        C233   1.407       .  A
C233        C234   1.401       .  A
C233        H240   1.084       .  S
C234        S236   1.800       .  S
S235        H238   1.407       .  S
S236        H237   1.403       .  S
C241        C242   1.406       .  A
C241        C246   1.418       .  A
C242        C243   1.401       .  A
C242        H251   1.084       .  S
C243        C244   1.412       .  A
C243        S247   1.804       .  S
C244        C245   1.399       .  A
C245        C246   1.401       .  A
C245        H252   1.083       .  S
C246        S248   1.803       .  S
S247        H250   1.406       .  S
S248        H249   1.407       .  S
C253        C254   1.398       .  A
C253        C258   1.415       .  A
C254        C255   1.400       .  A
C254        H263   1.083       .  S
C255        C256   1.416       .  A
C255        S259   1.810       .  S
C256        C257   1.401       .  A
C257        C258   1.401       .  A
C257        H264   1.084       .  S
C258        S260   1.804       .  S
S259        H262   1.407       .  S
S260        H261   1.406       .  S
C265        C266   1.402       .  A
C265        C270   1.416       .  A
C266        C267   1.403       .  A
C266        H275   1.084       .  S
C267        C268   1.416       .  A
C267        S271   1.804       .  S
C268        C269   1.398       .  A
C269        C270   1.395       .  A
C269        H276   1.084       .  S
C270        S272   1.803       .  S
S271        H274   1.406       .  S
S272        H273   1.406   1_545  S
O277        V285   1.920   1_554  S
O277        C287   1.269       .  A
O278        C288   1.269       .  A
O279        V285   1.883       .  S
O279        C289   1.260       .  A
O280        C290   1.258       .  A
O281        V286   1.919   1_565  S
O281        C290   1.269       .  A
O282        C289   1.268       .  A
O283        V286   1.880   1_566  S
O283        C288   1.259       .  A
O284        C287   1.258       .  A
C287        C520   1.472       .  S
C288        C532   1.475       .  S
C289        C541   1.476       .  S
C290        C505   1.473       .  S
C291        C493   1.484       .  S
C291        C292   1.409       .  A
C291        C296   1.398       .  A
C292        C293   1.413       .  A
C292        H297   1.082       .  S
C293        C484   1.506       .  S
C293        C294   1.413       .  A
C294        C295   1.403       .  A
C294        H298   1.083       .  S
C295        C529   1.475       .  S
C295        C296   1.393       .  A
C296        H299   1.084       .  S
C300        C469   1.483       .  S
C300        C301   1.400       .  A
C300        C305   1.408       .  A
C301        C302   1.399       .  A
C301        H306   1.084       .  S
C302        C544   1.477       .  S
C302        C303   1.404       .  A
C303        C304   1.408       .  A
C303        H307   1.083       .  S
C304        C481   1.502       .  S
C304        C305   1.410       .  A
C305        H308   1.083       .  S
O309        V317   1.922       .  S
O309        C319   1.270       .  A
O310        V869   1.925       .  S
O310        C320   1.272       .  A
O311        V317   1.883       .  S
O311        C321   1.258       .  A
O312        V869   1.881       .  S
O312        C322   1.259       .  A
O313        V318   1.922       .  S
O313        C322   1.270       .  A
O314        V870   1.920       .  S
O314        C321   1.269       .  A
O315        V318   1.878       .  S
O315        C320   1.259       .  A
O316        V870   1.878       .  S
O316        C319   1.260       .  A
V317        O862   1.925   1_455  S
V317        O864   1.881   1_455  S
V317        V870   2.086       .  T
V318        O866   1.920       .  S
V318        O868   1.878       .  S
V318        V869   2.086       .  T
C319        C445   1.487       .  S
C320        C421   1.484       .  S
C321        C460   1.471       .  S
C322        C433   1.479       .  S
C323        C436   1.482       .  S
C323        C324   1.397       .  A
C323        C328   1.406       .  A
C324        C325   1.401       .  A
C324        H329   1.084       .  S
C325        C517   1.490       .  S
C325        C326   1.411       .  A
C326        C327   1.415       .  A
C326        H330   1.081       .  S
C327        C412   1.512       .  S
C327        C328   1.414       .  A
C328        H331   1.082       .  S
C332        C448   1.484       .  S
C332        C333   1.408       .  A
C332        C337   1.397       .  A
C333        C334   1.411       .  A
C333        H338   1.082       .  S
C334        C409   1.506       .  S
C334        C335   1.413       .  A
C335        C336   1.410       .  A
C335        H339   1.083       .  S
C336        C508   1.486       .  S
C336        C337   1.399       .  A
C337        H340   1.084       .  S
O341        V349   1.918       .  S
O341        C351   1.271       .  A
O342        V349   1.922       .  S
O342        C352   1.271       .  A
O343        V349   1.877       .  S
O343        C353   1.257       .  A
O344        V349   1.882       .  S
O344        C354   1.258       .  A
O345        V350   1.920       .  S
O345        C354   1.269       .  A
O346        V350   1.918       .  S
O346        C353   1.269       .  A
O347        V350   1.877       .  S
O347        C352   1.258       .  A
O348        V350   1.877       .  S
O348        C351   1.257       .  A
V349        V350   2.085       .  T
C351        C397   1.479       .  S
C352        C472   1.481       .  S
C353        C496   1.467       .  S
C354        C388   1.470       .  S
C355        C385   1.475       .  S
C355        C356   1.396       .  A
C355        C360   1.404       .  A
C356        C357   1.397       .  A
C356        H361   1.084       .  S
C357        C424   1.484       .  S
C357        C358   1.410       .  A
C358        C359   1.414       .  A
C358        H362   1.081       .  S
C359        C373   1.509       .  S
C359        C360   1.414       .  A
C360        H363   1.083       .  S
C364        C400   1.482       .  S
C364        C365   1.398       .  A
C364        C369   1.405       .  A
C365        C366   1.398       .  A
C365        H370   1.084       .  S
C366        C457   1.481       .  S
C366        C367   1.410       .  A
C367        C368   1.414       .  A
C367        H371   1.083       .  S
C368        C376   1.506       .  S
C368        C369   1.409       .  A
C369        H372   1.082       .  S
C373        C374   1.409       .  A
C373        C378   1.422       .  A
C374        H383   1.082       .  S
C375        C376   1.420       .  A
C375        S379   1.806       .  S
C376        C377   1.408       .  A
C377        H384   1.083       .  S
C378        S380   1.804       .  S
S379        H382   1.407       .  S
S380        H381   1.407       .  S
C385        C386   1.399       .  A
C385        C390   1.414       .  A
C386        C387   1.397       .  A
C386        H395   1.084       .  S
C387        C388   1.413       .  A
C387        S391   1.800       .  S
C388        C389   1.402       .  A
C389        C390   1.402       .  A
C389        H396   1.084       .  S
C390        S392   1.804       .  S
S391        H394   1.404       .  S
S392        H393   1.405       .  S
C397        C398   1.403       .  A
C397        C402   1.420       .  A
C398        C399   1.402       .  A
C398        H407   1.084       .  S
C399        C400   1.416       .  A
C399        S403   1.804       .  S
C400        C401   1.399       .  A
C401        C402   1.394       .  A
C401        H408   1.084       .  S
C402        S404   1.806       .  S
S403        H406   1.406       .  S
S404        H405   1.403       .  S
C409        C410   1.408       .  A
C409        C414   1.418       .  A
C410        C411   1.406       .  A
C410        H419   1.083       .  S
C411        C412   1.422       .  A
C411        S415   1.804       .  S
C412        C413   1.411       .  A
C413        C414   1.404       .  A
C413        H420   1.082       .  S
C414        S416   1.805       .  S
S415        H418   1.407       .  S
S416        H417   1.407       .  S
C421        C422   1.408       .  A
C421        C426   1.412       .  A
C422        C423   1.397       .  A
C422        H431   1.084       .  S
C423        C424   1.410       .  A
C423        S427   1.804       .  S
C424        C425   1.408       .  A
C425        C426   1.405       .  A
C425        H432   1.084       .  S
C426        S428   1.801       .  S
S427        H430   1.407       .  S
S428        H429   1.407       .  S
C433        C434   1.402       .  A
C433        C438   1.416       .  A
C434        C435   1.405       .  A
C434        H443   1.084       .  S
C435        C436   1.418       .  A
C435        S439   1.804       .  S
C436        C437   1.399       .  A
C437        C438   1.397       .  A
C437        H444   1.084       .  S
C438        S440   1.803       .  S
S439        H442   1.405       .  S
S440        H441   1.406       .  S
C445        C446   1.409       .  A
C445        C450   1.414       .  A
C446        C447   1.396       .  A
C446        H455   1.084       .  S
C447        C448   1.409       .  A
C447        S451   1.805       .  S
C448        C449   1.408       .  A
C449        C450   1.404       .  A
C449        H456   1.084       .  S
C450        S452   1.801       .  S
S451        H454   1.407       .  S
S452        H453   1.403       .  S
C457        C458   1.403       .  A
C457        C462   1.414       .  A
C458        C459   1.401       .  A
C458        H467   1.084       .  S
C459        C460   1.411       .  A
C459        S463   1.803       .  S
C460        C461   1.402       .  A
C461        C462   1.401       .  A
C461        H468   1.084       .  S
C462        S464   1.804       .  S
S463        H466   1.406       .  S
S464        H465   1.406       .  S
C469        C470   1.399       .  A
C469        C474   1.418       .  A
C470        C471   1.394       .  A
C470        H479   1.084       .  S
C471        C472   1.420       .  A
C471        S475   1.805       .  S
C472        C473   1.403       .  A
C473        C474   1.404       .  A
C473        H480   1.084       .  S
C474        S476   1.803       .  S
S475        H478   1.403       .  S
S476        H477   1.406       .  S
C481        C482   1.408       .  A
C481        C486   1.418       .  A
C482       C1035   1.405       .  A
C482        H491   1.083       .  S
C483       C1034   1.405   1_455  A
C483        C484   1.422       .  A
C483        S487   1.804       .  S
C484        C485   1.409       .  A
C485       C1038   1.400   1_455  A
C485        H492   1.083       .  S
C486       C1037   1.400       .  A
C486        S488   1.805       .  S
S487        H490   1.407       .  S
S488        H489   1.407       .  S
C493        C494   1.404       .  A
C493        C498   1.415       .  A
C494        C495   1.398       .  A
C494        H503   1.084       .  S
C495        C496   1.411       .  A
C495        S499   1.805       .  S
C496        C497   1.400       .  A
C497        C498   1.403       .  A
C497        H504   1.081       .  S
C498        S500   1.808       .  S
S499        H502   1.406       .  S
S500        H501   1.407       .  S
C505        C506   1.404       .  A
C505        C510   1.410       .  A
C506        C507   1.400       .  A
C506        H515   1.085       .  S
C507        C508   1.414       .  A
C507        S511   1.804       .  S
C508        C509   1.407       .  A
C509        C510   1.401       .  A
C509        H516   1.084       .  S
C510        S512   1.800       .  S
S511        H514   1.407       .  S
S512        H513   1.403       .  S
C517        C518   1.406       .  A
C517        C522   1.418       .  A
C518        C519   1.401       .  A
C518        H527   1.084       .  S
C519        C520   1.412       .  A
C519        S523   1.804       .  S
C520        C521   1.399       .  A
C521        C522   1.401       .  A
C521        H528   1.083       .  S
C522        S524   1.803       .  S
S523        H526   1.406       .  S
S524        H525   1.407       .  S
C529        C530   1.398       .  A
C529        C534   1.415       .  A
C530        C531   1.400       .  A
C530        H539   1.083       .  S
C531        C532   1.416       .  A
C531        S535   1.810       .  S
C532        C533   1.401       .  A
C533        C534   1.401       .  A
C533        H540   1.084       .  S
C534        S536   1.804       .  S
S535        H538   1.407       .  S
S536        H537   1.406       .  S
C541        C542   1.402       .  A
C541        C546   1.416       .  A
C542        C543   1.403       .  A
C542        H551   1.084       .  S
C543        C544   1.416       .  A
C543        S547   1.804       .  S
C544        C545   1.398       .  A
C545        C546   1.395       .  A
C545        H552   1.084       .  S
C546        S548   1.803       .  S
S547        H550   1.406       .  S
S548        H549   1.406       .  S
O553        V561   1.920   1_544  S
O553        C563   1.269       .  A
O554        V837   1.916       .  S
O554        C564   1.269       .  A
O555        V561   1.883   1_545  S
O555        C565   1.260       .  A
O556        V837   1.881   1_554  S
O556        C566   1.258       .  A
O557        V562   1.919       .  S
O557        C566   1.269       .  A
O558        V838   1.916   1_556  S
O558        C565   1.268       .  A
O559        V562   1.880   1_556  S
O559        C564   1.259       .  A
O560        V838   1.882       .  S
O560        C563   1.258       .  A
V561        O830   1.916       .  S
V561        O832   1.881   1_556  S
V561        V838   2.088   1_566  T
V562        O834   1.916   1_554  S
V562        O836   1.882       .  S
V562        V837   2.088   1_554  T
C563        C796   1.472       .  S
C564        C808   1.475       .  S
C565        C817   1.476       .  S
C566        C781   1.473       .  S
C567        C769   1.484       .  S
C567        C568   1.409       .  A
C567        C572   1.398       .  A
C568        C569   1.413       .  A
C568        H573   1.082       .  S
C569        C760   1.506       .  S
C569        C570   1.413       .  A
C570        C571   1.403       .  A
C570        H574   1.083       .  S
C571        C805   1.475       .  S
C571        C572   1.393       .  A
C572        H575   1.084       .  S
C576        C745   1.483       .  S
C576        C577   1.400       .  A
C576        C581   1.408       .  A
C577        C578   1.399       .  A
C577        H582   1.084       .  S
C578        C820   1.477       .  S
C578        C579   1.404       .  A
C579        C580   1.408       .  A
C579        H583   1.083       .  S
C580        C757   1.502       .  S
C580        C581   1.410       .  A
C581        H584   1.083       .  S
O585        V593   1.922       .  S
O585        C595   1.270       .  A
O586        C596   1.272       .  A
O587        V593   1.883       .  S
O587        C597   1.258       .  A
O588        C598   1.259       .  A
O589        V594   1.922   1_655  S
O589        C598   1.270       .  A
O590        C597   1.269       .  A
O591        V594   1.878   1_655  S
O591        C596   1.259       .  A
O592        C595   1.260       .  A
C595        C721   1.487       .  S
C596        C697   1.484       .  S
C597        C736   1.471       .  S
C598        C709   1.479       .  S
C599        C712   1.482       .  S
C599        C600   1.397       .  A
C599        C604   1.406       .  A
C600        C601   1.401       .  A
C600        H605   1.084       .  S
C601        C793   1.490       .  S
C601        C602   1.411       .  A
C602        C603   1.415       .  A
C602        H606   1.081       .  S
C603        C688   1.512       .  S
C603        C604   1.414       .  A
C604        H607   1.082       .  S
C608        C724   1.484       .  S
C608        C609   1.408       .  A
C608        C613   1.397       .  A
C609        C610   1.411       .  A
C609        H614   1.082       .  S
C610        C685   1.506       .  S
C610        C611   1.413       .  A
C611        C612   1.410       .  A
C611        H615   1.083       .  S
C612        C784   1.486       .  S
C612        C613   1.399       .  A
C613        H616   1.084       .  S
O617        V625   1.918       .  S
O617        C627   1.271       .  A
O618        V625   1.922       .  S
O618        C628   1.271       .  A
O619        V625   1.877       .  S
O619        C629   1.257       .  A
O620        V625   1.882       .  S
O620        C630   1.258       .  A
O621        V626   1.920       .  S
O621        C630   1.269       .  A
O622        V626   1.918       .  S
O622        C629   1.269       .  A
O623        V626   1.877       .  S
O623        C628   1.258       .  A
O624        V626   1.877       .  S
O624        C627   1.257       .  A
V625        V626   2.085       .  T
C627        C673   1.479       .  S
C628        C748   1.481       .  S
C629        C772   1.467       .  S
C630        C664   1.470       .  S
C631        C661   1.475       .  S
C631        C632   1.396       .  A
C631        C636   1.404       .  A
C632        C633   1.397       .  A
C632        H637   1.084       .  S
C633        C700   1.484       .  S
C633        C634   1.410       .  A
C634        C635   1.414       .  A
C634        H638   1.081       .  S
C635        C649   1.509       .  S
C635        C636   1.414       .  A
C636        H639   1.083       .  S
C640        C676   1.482       .  S
C640        C641   1.398       .  A
C640        C645   1.405       .  A
C641        C642   1.398       .  A
C641        H646   1.084       .  S
C642        C733   1.481       .  S
C642        C643   1.410       .  A
C643        C644   1.414       .  A
C643        H647   1.083       .  S
C644        C652   1.506       .  S
C644        C645   1.409       .  A
C645        H648   1.082       .  S
C649        C650   1.409       .  A
C649        C654   1.422       .  A
C650        C927   1.402   1_545  A
C650        H659   1.082       .  S
C651        C926   1.402       .  A
C651        C652   1.420       .  A
C651        S655   1.806       .  S
C652        C653   1.408       .  A
C653        C930   1.406       .  A
C653        H660   1.083       .  S
C654        C929   1.406   1_545  A
C654        S656   1.804       .  S
S655        H658   1.407       .  S
S656        H657   1.407       .  S
C661        C662   1.399       .  A
C661        C666   1.414       .  A
C662        C663   1.397       .  A
C662        H671   1.084       .  S
C663        C664   1.413       .  A
C663        S667   1.800       .  S
C664        C665   1.402       .  A
C665        C666   1.402       .  A
C665        H672   1.084       .  S
C666        S668   1.804       .  S
S667        H670   1.404       .  S
S668        H669   1.405       .  S
C673        C674   1.403       .  A
C673        C678   1.420       .  A
C674        C675   1.402       .  A
C674        H683   1.084       .  S
C675        C676   1.416       .  A
C675        S679   1.804       .  S
C676        C677   1.399       .  A
C677        C678   1.394       .  A
C677        H684   1.084       .  S
C678        S680   1.806       .  S
S679        H682   1.406       .  S
S680        H681   1.403       .  S
C685        C686   1.408       .  A
C685        C690   1.418       .  A
C686        C687   1.406       .  A
C686        H695   1.083       .  S
C687        C688   1.422       .  A
C687        S691   1.804       .  S
C688        C689   1.411       .  A
C689        C690   1.404       .  A
C689        H696   1.082       .  S
C690        S692   1.805       .  S
S691        H694   1.407       .  S
S692        H693   1.407       .  S
C697        C698   1.408       .  A
C697        C702   1.412       .  A
C698        C699   1.397       .  A
C698        H707   1.084       .  S
C699        C700   1.410       .  A
C699        S703   1.804       .  S
C700        C701   1.408       .  A
C701        C702   1.405       .  A
C701        H708   1.084       .  S
C702        S704   1.801       .  S
S703        H706   1.407       .  S
S704        H705   1.407       .  S
C709        C710   1.402       .  A
C709        C714   1.416       .  A
C710        C711   1.405       .  A
C710        H719   1.084       .  S
C711        C712   1.418       .  A
C711        S715   1.804       .  S
C712        C713   1.399       .  A
C713        C714   1.397       .  A
C713        H720   1.084       .  S
C714        S716   1.803       .  S
S715        H718   1.405       .  S
S716        H717   1.406       .  S
C721        C722   1.409       .  A
C721        C726   1.414       .  A
C722        C723   1.396       .  A
C722        H731   1.084       .  S
C723        C724   1.409       .  A
C723        S727   1.805       .  S
C724        C725   1.408       .  A
C725        C726   1.404       .  A
C725        H732   1.084       .  S
C726        S728   1.801       .  S
S727        H730   1.407       .  S
S728        H729   1.403       .  S
C733        C734   1.403       .  A
C733        C738   1.414       .  A
C734        C735   1.401       .  A
C734        H743   1.084       .  S
C735        C736   1.411       .  A
C735        S739   1.803       .  S
C736        C737   1.402       .  A
C737        C738   1.401       .  A
C737        H744   1.084       .  S
C738        S740   1.804       .  S
S739        H742   1.406       .  S
S740        H741   1.406       .  S
C745        C746   1.399       .  A
C745        C750   1.418       .  A
C746        C747   1.394       .  A
C746        H755   1.084       .  S
C747        C748   1.420       .  A
C747        S751   1.805       .  S
C748        C749   1.403       .  A
C749        C750   1.404       .  A
C749        H756   1.084       .  S
C750        S752   1.803       .  S
S751        H754   1.403       .  S
S752        H753   1.406       .  S
C757        C758   1.408       .  A
C757        C762   1.418       .  A
C758        H767   1.083       .  S
C759        C760   1.422       .  A
C759        S763   1.804       .  S
C760        C761   1.409       .  A
C761        H768   1.083       .  S
C762        S764   1.805       .  S
S763        H766   1.407       .  S
S764        H765   1.407       .  S
C769        C770   1.404       .  A
C769        C774   1.415       .  A
C770        C771   1.398       .  A
C770        H779   1.084       .  S
C771        C772   1.411       .  A
C771        S775   1.805       .  S
C772        C773   1.400       .  A
C773        C774   1.403       .  A
C773        H780   1.081       .  S
C774        S776   1.808       .  S
S775        H778   1.406       .  S
S776        H777   1.407       .  S
C781        C782   1.404       .  A
C781        C786   1.410       .  A
C782        C783   1.400       .  A
C782        H791   1.085       .  S
C783        C784   1.414       .  A
C783        S787   1.804       .  S
C784        C785   1.407       .  A
C785        C786   1.401       .  A
C785        H792   1.084       .  S
C786        S788   1.800       .  S
S787        H790   1.407       .  S
S788        H789   1.403       .  S
C793        C794   1.406       .  A
C793        C798   1.418       .  A
C794        C795   1.401       .  A
C794        H803   1.084       .  S
C795        C796   1.412       .  A
C795        S799   1.804       .  S
C796        C797   1.399       .  A
C797        C798   1.401       .  A
C797        H804   1.083       .  S
C798        S800   1.803       .  S
S799        H802   1.406       .  S
S800        H801   1.407       .  S
C805        C806   1.398       .  A
C805        C810   1.415       .  A
C806        C807   1.400       .  A
C806        H815   1.083       .  S
C807        C808   1.416       .  A
C807        S811   1.810       .  S
C808        C809   1.401       .  A
C809        C810   1.401       .  A
C809        H816   1.084       .  S
C810        S812   1.804       .  S
S811        H814   1.407       .  S
S812        H813   1.406       .  S
C817        C818   1.402       .  A
C817        C822   1.416       .  A
C818        C819   1.403       .  A
C818        H827   1.084       .  S
C819        C820   1.416       .  A
C819        S823   1.804       .  S
C820        C821   1.398       .  A
C821        C822   1.395       .  A
C821        H828   1.084       .  S
C822        S824   1.803       .  S
S823        H826   1.406       .  S
S824        H825   1.406   1_545  S
O829        V837   1.920   1_554  S
O829        C839   1.269       .  A
O830        C840   1.269       .  A
O831        V837   1.883       .  S
O831        C841   1.260       .  A
O832        C842   1.258       .  A
O833        V838   1.919   1_565  S
O833        C842   1.269       .  A
O834        C841   1.268       .  A
O835        V838   1.880   1_566  S
O835        C840   1.259       .  A
O836        C839   1.258       .  A
C839       C1072   1.472       .  S
C840       C1084   1.475       .  S
C841       C1093   1.476       .  S
C842       C1057   1.473       .  S
C843       C1045   1.484       .  S
C843        C844   1.409       .  A
C843        C848   1.398       .  A
C844        C845   1.413       .  A
C844        H849   1.082       .  S
C845       C1036   1.506       .  S
C845        C846   1.413       .  A
C846        C847   1.403       .  A
C846        H850   1.083       .  S
C847       C1081   1.475       .  S
C847        C848   1.393       .  A
C848        H851   1.084       .  S
C852       C1021   1.483       .  S
C852        C853   1.400       .  A
C852        C857   1.408       .  A
C853        C854   1.399       .  A
C853        H858   1.084       .  S
C854       C1096   1.477       .  S
C854        C855   1.404       .  A
C855        C856   1.408       .  A
C855        H859   1.083       .  S
C856       C1033   1.502       .  S
C856        C857   1.410       .  A
C857        H860   1.083       .  S
O861        V869   1.922       .  S
O861        C871   1.270       .  A
O862        C872   1.272       .  A
O863        V869   1.883       .  S
O863        C873   1.258       .  A
O864        C874   1.259       .  A
O865        V870   1.922   1_655  S
O865        C874   1.270       .  A
O866        C873   1.269       .  A
O867        V870   1.878   1_655  S
O867        C872   1.259       .  A
O868        C871   1.260       .  A
C871        C997   1.487       .  S
C872        C973   1.484       .  S
C873       C1012   1.471       .  S
C874        C985   1.479       .  S
C875        C988   1.482       .  S
C875        C876   1.397       .  A
C875        C880   1.406       .  A
C876        C877   1.401       .  A
C876        H881   1.084       .  S
C877       C1069   1.490       .  S
C877        C878   1.411       .  A
C878        C879   1.415       .  A
C878        H882   1.081       .  S
C879        C964   1.512       .  S
C879        C880   1.414       .  A
C880        H883   1.082       .  S
C884       C1000   1.484       .  S
C884        C885   1.408       .  A
C884        C889   1.397       .  A
C885        C886   1.411       .  A
C885        H890   1.082       .  S
C886        C961   1.506       .  S
C886        C887   1.413       .  A
C887        C888   1.410       .  A
C887        H891   1.083       .  S
C888       C1060   1.486       .  S
C888        C889   1.399       .  A
C889        H892   1.084       .  S
O893        V901   1.918       .  S
O893        C903   1.271       .  A
O894        V901   1.922       .  S
O894        C904   1.271       .  A
O895        V901   1.877       .  S
O895        C905   1.257       .  A
O896        V901   1.882       .  S
O896        C906   1.258       .  A
O897        V902   1.920       .  S
O897        C906   1.269       .  A
O898        V902   1.918       .  S
O898        C905   1.269       .  A
O899        V902   1.877       .  S
O899        C904   1.258       .  A
O900        V902   1.877       .  S
O900        C903   1.257       .  A
V901        V902   2.085       .  T
C903        C949   1.479       .  S
C904       C1024   1.481       .  S
C905       C1048   1.467       .  S
C906        C940   1.470       .  S
C907        C937   1.475       .  S
C907        C908   1.396       .  A
C907        C912   1.404       .  A
C908        C909   1.397       .  A
C908        H913   1.084       .  S
C909        C976   1.484       .  S
C909        C910   1.410       .  A
C910        C911   1.414       .  A
C910        H914   1.081       .  S
C911        C925   1.509       .  S
C911        C912   1.414       .  A
C912        H915   1.083       .  S
C916        C952   1.482       .  S
C916        C917   1.398       .  A
C916        C921   1.405       .  A
C917        C918   1.398       .  A
C917        H922   1.084       .  S
C918       C1009   1.481       .  S
C918        C919   1.410       .  A
C919        C920   1.414       .  A
C919        H923   1.083       .  S
C920        C928   1.506       .  S
C920        C921   1.409       .  A
C921        H924   1.082       .  S
C925        C926   1.409       .  A
C925        C930   1.422       .  A
C926        H935   1.082       .  S
C927        C928   1.420       .  A
C927        S931   1.806       .  S
C928        C929   1.408       .  A
C929        H936   1.083       .  S
C930        S932   1.804       .  S
S931        H934   1.407       .  S
S932        H933   1.407       .  S
C937        C938   1.399       .  A
C937        C942   1.414       .  A
C938        C939   1.397       .  A
C938        H947   1.084       .  S
C939        C940   1.413       .  A
C939        S943   1.800       .  S
C940        C941   1.402       .  A
C941        C942   1.402       .  A
C941        H948   1.084       .  S
C942        S944   1.804       .  S
S943        H946   1.404       .  S
S944        H945   1.405       .  S
C949        C950   1.403       .  A
C949        C954   1.420       .  A
C950        C951   1.402       .  A
C950        H959   1.084       .  S
C951        C952   1.416       .  A
C951        S955   1.804       .  S
C952        C953   1.399       .  A
C953        C954   1.394       .  A
C953        H960   1.084       .  S
C954        S956   1.806       .  S
S955        H958   1.406       .  S
S956        H957   1.403       .  S
C961        C962   1.408       .  A
C961        C966   1.418       .  A
C962        C963   1.406       .  A
C962        H971   1.083       .  S
C963        C964   1.422       .  A
C963        S967   1.804       .  S
C964        C965   1.411       .  A
C965        C966   1.404       .  A
C965        H972   1.082       .  S
C966        S968   1.805       .  S
S967        H970   1.407       .  S
S968        H969   1.407       .  S
C973        C974   1.408       .  A
C973        C978   1.412       .  A
C974        C975   1.397       .  A
C974        H983   1.084       .  S
C975        C976   1.410       .  A
C975        S979   1.804       .  S
C976        C977   1.408       .  A
C977        C978   1.405       .  A
C977        H984   1.084       .  S
C978        S980   1.801       .  S
S979        H982   1.407       .  S
S980        H981   1.407       .  S
C985        C986   1.402       .  A
C985        C990   1.416       .  A
C986        C987   1.405       .  A
C986        H995   1.084       .  S
C987        C988   1.418       .  A
C987        S991   1.804       .  S
C988        C989   1.399       .  A
C989        C990   1.397       .  A
C989        H996   1.084       .  S
C990        S992   1.803       .  S
S991        H994   1.405       .  S
S992        H993   1.406       .  S
C997        C998   1.409       .  A
C997       C1002   1.414       .  A
C998        C999   1.396       .  A
C998       H1007   1.084       .  S
C999       C1000   1.409       .  A
C999       S1003   1.805       .  S
C1000      C1001   1.408       .  A
C1001      C1002   1.404       .  A
C1001      H1008   1.084       .  S
C1002      S1004   1.801       .  S
S1003      H1006   1.407       .  S
S1004      H1005   1.403       .  S
C1009      C1010   1.403       .  A
C1009      C1014   1.414       .  A
C1010      C1011   1.401       .  A
C1010      H1019   1.084       .  S
C1011      C1012   1.411       .  A
C1011      S1015   1.803       .  S
C1012      C1013   1.402       .  A
C1013      C1014   1.401       .  A
C1013      H1020   1.084       .  S
C1014      S1016   1.804       .  S
S1015      H1018   1.406       .  S
S1016      H1017   1.406       .  S
C1021      C1022   1.399       .  A
C1021      C1026   1.418       .  A
C1022      C1023   1.394       .  A
C1022      H1031   1.084       .  S
C1023      C1024   1.420       .  A
C1023      S1027   1.805       .  S
C1024      C1025   1.403       .  A
C1025      C1026   1.404       .  A
C1025      H1032   1.084       .  S
C1026      S1028   1.803       .  S
S1027      H1030   1.403       .  S
S1028      H1029   1.406       .  S
C1033      C1034   1.408       .  A
C1033      C1038   1.418       .  A
C1034      H1043   1.083       .  S
C1035      C1036   1.422       .  A
C1035      S1039   1.804       .  S
C1036      C1037   1.409       .  A
C1037      H1044   1.083       .  S
C1038      S1040   1.805       .  S
S1039      H1042   1.407       .  S
S1040      H1041   1.407       .  S
C1045      C1046   1.404       .  A
C1045      C1050   1.415       .  A
C1046      C1047   1.398       .  A
C1046      H1055   1.084       .  S
C1047      C1048   1.411       .  A
C1047      S1051   1.805       .  S
C1048      C1049   1.400       .  A
C1049      C1050   1.403       .  A
C1049      H1056   1.081       .  S
C1050      S1052   1.808       .  S
S1051      H1054   1.406       .  S
S1052      H1053   1.407       .  S
C1057      C1058   1.404       .  A
C1057      C1062   1.410       .  A
C1058      C1059   1.400       .  A
C1058      H1067   1.085       .  S
C1059      C1060   1.414       .  A
C1059      S1063   1.804       .  S
C1060      C1061   1.407       .  A
C1061      C1062   1.401       .  A
C1061      H1068   1.084       .  S
C1062      S1064   1.800       .  S
S1063      H1066   1.407       .  S
S1064      H1065   1.403       .  S
C1069      C1070   1.406       .  A
C1069      C1074   1.418       .  A
C1070      C1071   1.401       .  A
C1070      H1079   1.084       .  S
C1071      C1072   1.412       .  A
C1071      S1075   1.804       .  S
C1072      C1073   1.399       .  A
C1073      C1074   1.401       .  A
C1073      H1080   1.083       .  S
C1074      S1076   1.803       .  S
S1075      H1078   1.406       .  S
S1076      H1077   1.407       .  S
C1081      C1082   1.398       .  A
C1081      C1086   1.415       .  A
C1082      C1083   1.400       .  A
C1082      H1091   1.083       .  S
C1083      C1084   1.416       .  A
C1083      S1087   1.810       .  S
C1084      C1085   1.401       .  A
C1085      C1086   1.401       .  A
C1085      H1092   1.084       .  S
C1086      S1088   1.804       .  S
S1087      H1090   1.407       .  S
S1088      H1089   1.406       .  S
C1093      C1094   1.402       .  A
C1093      C1098   1.416       .  A
C1094      C1095   1.403       .  A
C1094      H1103   1.084       .  S
C1095      C1096   1.416       .  A
C1095      S1099   1.804       .  S
C1096      C1097   1.398       .  A
C1097      C1098   1.395       .  A
C1097      H1104   1.084       .  S
C1098      S1100   1.803       .  S
S1099      H1102   1.406       .  S
S1100      H1101   1.406       .  S
