geometry optimzed in LAMMPS
_audit_creation_date              2020-12-01 
_audit_creation_method            'lammps2cif' 
_symmetry_space_group_name_H-M    'P1' 
_symmetry_Int_Tables_number       1 
_symmetry_cell_setting            triclinic 
loop_ 
_symmetry_equiv_pos_as_xyz 
  x,y,z 
_cell_length_a                    30.28684655 
_cell_length_b                    30.443856939967123 
_cell_length_c                    45.29656358047757 
_cell_angle_alpha                 88.81704466406934 
_cell_angle_beta                  89.26674469956583 
_cell_angle_gamma                 123.06604596133035 
loop_ 
_atom_site_label 
_atom_site_type_symbol 
_atom_site_fract_x 
_atom_site_fract_y 
_atom_site_fract_z 
_atom_site_charge 
O1          O  0.18562459  0.43342123  0.03794750    -0.71900
O2          O  0.25289876  0.06683251  0.97096211    -0.72100
O3          O  0.16701544  0.42971919  0.97945381    -0.71900
O4          O  0.25701666  0.06071201  0.03005703    -0.71900
O5          O  0.33073153  0.06440117  0.02919760    -0.71900
O6          O  0.24330019  0.44496004  0.96608507    -0.71900
O7          O  0.33185116  0.08229008  0.97085837    -0.71900
O8          O  0.25596906  0.43642858  0.02413641    -0.72100
V9          V  0.20121644  0.48381867  0.00670368     1.35200
V10         V  0.30649243  0.02197423  0.99502653     1.35200
C11         C  0.21703604  0.41859166  0.04186525     0.77400
C12         C  0.30045145  0.09397731  0.96146974     0.77400
C13         C  0.19398019  0.42043976  0.96240955     0.77300
C14         C  0.30142059  0.07753364  0.04083817     0.77300
C15         C  0.08293357  0.28021306  0.80958539     0.80100
N16         N  0.02984393  0.25798871  0.80997311    -0.78200
C17         C  0.00452441  0.25950036  0.83461718     0.82600
N18         N  0.03272048  0.28346516  0.85896661    -0.78100
C19         C  0.08591968  0.30653581  0.85869618     0.82700
N20         N  0.11006737  0.30388587  0.83412620    -0.81000
C21         C  0.40885285  0.21940736  0.80752046     0.80100
N22         N  0.38338009  0.20827006  0.83416326    -0.78200
C23         C  0.40995815  0.22057162  0.85979629     0.82600
N24         N  0.46340794  0.24622577  0.85828949    -0.78100
C25         C  0.48991965  0.25929522  0.83183419     0.82700
N26         N  0.46239316  0.24538757  0.80655266    -0.79800
O27         O  0.47093149  0.19914874  0.30502074    -0.71900
O28         O  0.04127934  0.21596861  0.36952572    -0.72100
O29         O  0.46345229  0.20759264  0.36328669    -0.71900
O30         O  0.05367609  0.21693964  0.31081663    -0.71900
O31         O  0.05721852  0.28944533  0.30446998    -0.71900
O32         O  0.47691527  0.28522293  0.35887026    -0.71900
O33         O  0.05086772  0.29167943  0.36323776    -0.71900
O34         O  0.47676697  0.27335450  0.30026304    -0.72100
V35         V  0.99551275  0.19201543  0.33662620     1.35200
V36         V  0.00098701  0.26322136  0.33365366     1.35200
C37         C  0.45649259  0.22678496  0.29253281     0.77400
C38         C  0.06233294  0.26316147  0.37698932     0.77400
C39         C  0.45171203  0.23960296  0.37094901     0.77300
C40         C  0.07544874  0.26154278  0.29843242     0.77300
C41         C  0.32603025  0.20148923  0.19538327     0.80100
N42         N  0.33150709  0.18294251  0.16951259    -0.78200
C43         C  0.31177379  0.18890414  0.14410713     0.82600
N44         N  0.28565350  0.21370477  0.14480360    -0.78100
C45         C  0.27975402  0.23266798  0.17045083     0.82700
N46         N  0.30021847  0.22662762  0.19559189    -0.79800
C47         C  0.22203554  0.30726114  0.14564209     0.80100
N48         N  0.20214786  0.31206821  0.17146553    -0.78200
C49         C  0.20779852  0.29236963  0.19723083     0.82600
N50         N  0.23337460  0.26682955  0.19666283    -0.78100
C51         C  0.25234665  0.26055831  0.17083479     0.82700
N52         N  0.24639950  0.28076767  0.14534303    -0.79800
O53         O  0.24510399  0.29720261  0.70314232    -0.71900
O54         O  0.30347980  0.26429316  0.63841205    -0.72100
O55         O  0.23840613  0.29748177  0.64455756    -0.71900
O56         O  0.31234339  0.26640491  0.69728836    -0.71900
O57         O  0.24539236  0.18641534  0.70345250    -0.71900
O58         O  0.17386877  0.21557975  0.64454160    -0.71900
O59         O  0.23987232  0.18236404  0.64440211    -0.71900
O60         O  0.17665101  0.21707979  0.70379880    -0.72100
V61         V  0.27358316  0.27972726  0.67095679     1.35200
V62         V  0.21009685  0.20180162  0.67407587     1.35200
C63         C  0.19998057  0.26248715  0.71385300     0.77400
C64         C  0.28137880  0.21711639  0.63068801     0.77400
C65         C  0.19477369  0.26239976  0.63473003     0.77300
C66         C  0.29243539  0.22191154  0.70955093     0.77300
C67         C  0.29942815  0.13093300  0.52281996     0.80100
N68         N  0.27556836  0.07775560  0.52362274    -0.78200
C69         C  0.27193789  0.05212633  0.49858568     0.82600
N70         N  0.29288736  0.08007983  0.47277745    -0.78100
C71         C  0.31728843  0.13307936  0.47155161     0.82700
N72         N  0.32075610  0.15797912  0.49680202    -0.79800
C73         C  0.18327282  0.36740201  0.53320871     0.80100
N74         N  0.21181606  0.42077114  0.53165391    -0.78200
C75         C  0.21928112  0.44691308  0.50542133     0.82600
N76         N  0.19767112  0.41922412  0.48066909    -0.78100
C77         C  0.16859277  0.36583585  0.48208595     0.82700
N78         N  0.16256464  0.34081111  0.50822982    -0.79800
C79         C  0.30194508  0.13538955  0.57751885    -0.05900
C80         C  0.30255552  0.15887433  0.55031235     0.00100
C81         C  0.30389007  0.20651756  0.55045361    -0.08500
C82         C  0.30409002  0.22793409  0.57778777    -0.05900
C83         C  0.29975917  0.20223612  0.60468097     0.00100
C84         C  0.30071729  0.15621891  0.60467855    -0.08400
C85         C  0.29985653  0.12712444  0.63254994     0.62000
H86         H  0.30176623  0.09967504  0.57769757     0.12700
H87         H  0.30308985  0.26293665  0.57839431     0.12700
C88         C  0.30121106  0.23325129  0.52240691     0.62200
F89         F  0.33988411  0.11809270  0.63063870    -0.23000
F90         F  0.25208623  0.07940105  0.63517369    -0.20300
F91         F  0.30721005  0.15468274  0.65785822    -0.20000
F92         F  0.25932159  0.19734744  0.50581265    -0.20000
F93         F  0.34777518  0.25494764  0.50609828    -0.20400
F94         F  0.29387275  0.27330937  0.52841303    -0.23000
C95         C  0.17762572  0.32653120  0.61427419    -0.05900
C96         C  0.17279194  0.27828744  0.61113124     0.00100
C97         C  0.16230335  0.25560627  0.58320082    -0.08500
C98         C  0.16522632  0.28589797  0.55855276    -0.05900
C99         C  0.17595645  0.33700610  0.56112204     0.00100
C100        C  0.17856473  0.35619527  0.58978932    -0.08400
C101        C  0.18344196  0.40780397  0.59500160     0.62000
H102        H  0.18467452  0.34272894  0.63607770     0.12700
H103        H  0.16180612  0.27044738  0.53684270     0.12700
C104        C  0.15054027  0.20084239  0.57924047     0.62200
F105        F  0.17460957  0.41278707  0.62445172    -0.23000
F106        F  0.14656618  0.41062601  0.57882783    -0.20300
F107        F  0.23360109  0.44932226  0.58688682    -0.20000
F108        F  0.10753846  0.16545206  0.59703420    -0.20000
F109        F  0.19345269  0.19901217  0.58693481    -0.20400
F110        F  0.13888242  0.18535042  0.55033310    -0.23000
C111        C  0.36417192  0.17174012  0.39092187    -0.05900
C112        C  0.40981624  0.22174360  0.39399388     0.00100
C113        C  0.41899596  0.24650915  0.42128393    -0.08500
C114        C  0.38634082  0.21694963  0.44586092    -0.05900
C115        C  0.34390368  0.16429058  0.44362702     0.00100
C116        C  0.33005538  0.14292458  0.41505476    -0.08400
C117        C  0.28078826  0.08961304  0.40955770     0.62000
H118        H  0.35713778  0.15386710  0.36959310     0.12700
H119        H  0.39594711  0.23415061  0.46734357     0.12700
C120        C  0.46435596  0.30284682  0.42469388     0.62200
F121        F  0.26868935  0.08380965  0.37993024    -0.23000
F122        F  0.23806246  0.08364619  0.42504911    -0.20300
F123        F  0.28847196  0.05050870  0.41815658    -0.20000
F124        F  0.45944157  0.33503528  0.40490421    -0.20000
F125        F  0.51161766  0.30748902  0.41910930    -0.20400
F126        F  0.46530853  0.32008397  0.45286803    -0.23000
C127        C  0.37162192  0.20727212  0.27448961    -0.05900
C128        C  0.41720417  0.20705408  0.26924056     0.00100
C129        C  0.42864863  0.19778647  0.24065387    -0.08500
C130        C  0.39646038  0.19401143  0.21746140    -0.05900
C131        C  0.35291982  0.19852752  0.22207434     0.00100
C132        C  0.33816128  0.20163865  0.25153679    -0.08400
C133        C  0.28765884  0.19879470  0.25924047     0.62000
H134        H  0.36350063  0.21399814  0.29673478     0.12700
H135        H  0.40689313  0.18992012  0.19521833     0.12700
C136        C  0.47612571  0.19449805  0.23452845     0.62200
F137        F  0.27563195  0.18961541  0.28924309    -0.23000
F138        F  0.24586186  0.15807570  0.24471042    -0.20300
F139        F  0.29294920  0.24558854  0.25137196    -0.20000
F140        F  0.47193042  0.15421499  0.25168781    -0.20000
F141        F  0.00758646  0.21826788  0.24369056    -0.20400
F142        F  0.48004849  0.18475806  0.20520671    -0.23000
C143        C  0.17639185  0.25993481  0.24864296    -0.05900
C144        C  0.18245733  0.29420925  0.22540336     0.00100
C145        C  0.16212220  0.32640446  0.22962443    -0.08500
C146        C  0.12981716  0.31681316  0.25483279    -0.05900
C147        C  0.11888386  0.27795546  0.27624939     0.00100
C148        C  0.14618603  0.25200780  0.27426725    -0.08400
C149        C  0.14240223  0.21395804  0.29809727     0.62000
H150        H  0.19336537  0.23678786  0.24617606     0.12700
H151        H  0.11050529  0.33784551  0.25710597     0.12700
C152        C  0.17340834  0.37046465  0.20802276     0.62200
F153        F  0.18321449  0.20615410  0.29527553    -0.23000
F154        F  0.09547053  0.16583550  0.29592243    -0.20300
F155        F  0.14538873  0.23340051  0.32584392    -0.20000
F156        F  0.14417781  0.34991930  0.18298846    -0.20000
F157        F  0.22658608  0.40065448  0.20040820    -0.20400
F158        F  0.16034759  0.40343280  0.22020046    -0.23000
C159        C  0.07265714  0.26023447  0.43011896    -0.05900
C160        C  0.09570543  0.28457622  0.40276229     0.00100
C161        C  0.14425223  0.33389549  0.40136917    -0.08500
C162        C  0.16795725  0.35757636  0.42787716    -0.05900
C163        C  0.14320136  0.33509395  0.45546200     0.00100
C164        C  0.09407688  0.28550454  0.45666037    -0.08400
C165        C  0.06172617  0.26051020  0.48515980     0.62000
H166        H  0.03510911  0.22288679  0.43038560     0.12700
H167        H  0.20512266  0.39523110  0.42714176     0.12700
C168        C  0.16999819  0.36249680  0.37209858     0.62200
F169        F  0.01110040  0.21878702  0.47987041    -0.23000
F170        F  0.05722533  0.29688460  0.50039974    -0.20300
F171        F  0.08537371  0.24162870  0.50252095    -0.20000
F172        F  0.14240754  0.38251489  0.36024885    -0.20000
F173        F  0.17037738  0.32846122  0.35251685    -0.20400
F174        F  0.22160043  0.40384044  0.37544389    -0.23000
C175        C  0.40636832  0.24349138  0.75549738    -0.05900
C176        C  0.37932293  0.20904946  0.77972198     0.00100
C177        C  0.32440717  0.17076208  0.77748932    -0.08500
C178        C  0.29731491  0.17528629  0.75383003    -0.05900
C179        C  0.32383228  0.21362693  0.73120593     0.00100
C180        C  0.37994297  0.24566960  0.73088090    -0.08400
C181        C  0.41270798  0.28374134  0.70543873     0.62000
H182        H  0.44847411  0.27144851  0.75659681     0.12700
H183        H  0.25479307  0.14909007  0.75336613     0.12700
C184        C  0.29254473  0.12447679  0.79899565     0.62200
F185        F  0.46497631  0.29926163  0.70646217    -0.23000
F186        F  0.41113499  0.32821369  0.70683076    -0.20300
F187        F  0.39382632  0.26022605  0.67868795    -0.20000
F188        F  0.26259153  0.13433912  0.81757882    -0.20000
F189        F  0.32388429  0.11374972  0.81546272    -0.20400
F190        F  0.25891491  0.07986722  0.78358123    -0.23000
C191        C  0.15939991  0.28012823  0.78953284    -0.05900
C192        C  0.11224996  0.27732086  0.78368239     0.00100
C193        C  0.09657891  0.27374589  0.75386571    -0.08500
C194        C  0.12767330  0.27095881  0.73146370    -0.05900
C195        C  0.17410494  0.27326856  0.73772940     0.00100
C196        C  0.19084478  0.27867738  0.76704393    -0.08400
C197        C  0.24079591  0.28098438  0.77453513     0.62000
H198        H  0.17122763  0.28234766  0.81216313     0.12700
H199        H  0.11554848  0.26609562  0.70872885     0.12700
C200        C  0.04805052  0.27342041  0.74530075     0.62200
F201        F  0.28356866  0.32350217  0.75978726    -0.23000
F202        F  0.23654125  0.23547785  0.76606991    -0.20300
F203        F  0.25018206  0.28619973  0.80448931    -0.20000
F204        F  0.04956467  0.31559072  0.75736542    -0.20000
F205        F  0.00301364  0.22712232  0.75528667    -0.20400
F206        F  0.04507482  0.27731025  0.71497198    -0.23000
C207        C  0.17154793  0.32516019  0.11004833    -0.05900
C208        C  0.22014231  0.33385058  0.11852299     0.00100
C209        C  0.26666259  0.37093048  0.10244486    -0.08500
C210        C  0.26235107  0.39479743  0.07691473    -0.05900
C211        C  0.21395739  0.38632253  0.06797609     0.00100
C212        C  0.16764071  0.35170356  0.08526144    -0.08400
C213        C  0.11468776  0.34290864  0.07797769     0.62000
H214        H  0.13675627  0.29801029  0.12341981     0.12700
H215        H  0.29796770  0.42255685  0.06436296     0.12700
C216        C  0.32112214  0.38832375  0.11323285     0.62200
F217        F  0.07441449  0.30421571  0.09611973    -0.23000
F218        F  0.10281410  0.32770326  0.04909906    -0.20300
F219        F  0.11624007  0.38869281  0.08172394    -0.20000
F220        F  0.32910673  0.34795474  0.11118141    -0.20000
F221        F  0.32561960  0.40302457  0.14230612    -0.20400
F222        F  0.36088583  0.43088628  0.09679957    -0.23000
C223        C  0.31861709  0.15801423  0.06322941    -0.05900
C224        C  0.31645953  0.11102725  0.06666846     0.00100
C225        C  0.31791088  0.09249282  0.09524799    -0.08500
C226        C  0.31841862  0.12039769  0.11973828    -0.05900
C227        C  0.31669703  0.16560159  0.11657142     0.00100
C228        C  0.31939206  0.18624680  0.08766254    -0.08400
C229        C  0.32315360  0.23758518  0.08217945     0.62000
H230        H  0.31718462  0.17119984  0.04106420     0.12700
H231        H  0.31715930  0.10515018  0.14174957     0.12700
C232        C  0.31455229  0.04125148  0.09996651     0.62200
F233        F  0.33626189  0.25491082  0.05295216    -0.23000
F234        F  0.36181976  0.27602731  0.09938226    -0.20300
F235        F  0.27521511  0.23109247  0.08884086    -0.20000
F236        F  0.35438267  0.04253972  0.08388856    -0.20000
F237        F  0.26628869  0.00039496  0.09085329    -0.20400
F238        F  0.31945561  0.03167698  0.12936925    -0.23000
C239        C  0.09218702  0.31464501  0.91308774    -0.05900
C240        C  0.11712653  0.33359168  0.88515942     0.00100
C241        C  0.16995535  0.37833236  0.88338239    -0.08500
C242        C  0.19508941  0.40219801  0.90968921    -0.05900
C243        C  0.16860050  0.38548504  0.93723557     0.00100
C244        C  0.11666326  0.34005847  0.93917853    -0.08400
C245        C  0.08694049  0.31812816  0.96858021     0.62000
H246        H  0.05247331  0.28017343  0.91432407     0.12700
H247        H  0.23491418  0.43664360  0.90874541     0.12700
C248        C  0.19929026  0.40331664  0.85410752     0.62200
F249        F  0.04280731  0.26789044  0.96619240    -0.23000
F250        F  0.07041409  0.34956913  0.97868599    -0.20300
F251        F  0.11926638  0.31595112  0.98903740    -0.20000
F252        F  0.16842291  0.41186873  0.83568434    -0.20000
F253        F  0.21196956  0.37102364  0.84077270    -0.20400
F254        F  0.24583843  0.45130744  0.85776461    -0.23000
C255        C  0.32462083  0.16336131  0.88761840    -0.05900
C256        C  0.37961022  0.19997985  0.88864264     0.00100
C257        C  0.40337099  0.21140965  0.91674630    -0.08500
C258        C  0.37342406  0.17897825  0.94121369    -0.05900
C259        C  0.32084970  0.13689519  0.93880097     0.00100
C260        C  0.29468108  0.13143330  0.91224344    -0.08400
C261        C  0.23643297  0.09008766  0.90927812     0.62000
H262        H  0.30541451  0.15701671  0.86682157     0.12700
H263        H  0.39229738  0.18376105  0.96213424     0.12700
C264        C  0.46016735  0.25568200  0.92143102     0.62200
F265        F  0.21857115  0.09263452  0.88171364    -0.23000
F266        F  0.20764986  0.09748902  0.93021841    -0.20300
F267        F  0.22717973  0.04061701  0.91339218    -0.20000
F268        F  0.47114059  0.30098736  0.90668905    -0.20000
F269        F  0.49406200  0.24173231  0.91141138    -0.20400
F270        F  0.46960134  0.26686379  0.95103493    -0.23000
O271        O  0.21203610  0.95669015  0.02911718    -0.71900
O272        O  0.21576713  0.53470478  0.97598241    -0.72100
O273        O  0.20513221  0.96209848  0.97005458    -0.71900
O274        O  0.23189113  0.53753510  0.03423363    -0.71900
O275        O  0.30475603  0.54006814  0.02931068    -0.71900
O276        O  0.28383504  0.97975857  0.96075782    -0.71900
O277        O  0.29416426  0.54909960  0.97140011    -0.71900
O278        O  0.28503225  0.96235563  0.01903359    -0.72100
V279        V  0.23301728  0.01170602  0.99992638     1.35200
V280        V  0.27311441  0.49232229  0.99785189     1.35200
C281        C  0.24247871  0.94095122  0.03398999     0.77400
C282        C  0.26148299  0.56028811  0.96386607     0.77400
C283        C  0.23549443  0.95536922  0.95441094     0.77300
C284        C  0.27844025  0.55570840  0.04199531     0.77300
C285        C  0.12270508  0.82394382  0.80016041     0.80100
N286        N  0.06911150  0.79708525  0.80282314    -0.78200
C287        C  0.04508090  0.79438322  0.82908001     0.82600
N288        N  0.07517302  0.81874256  0.85277919    -0.78100
C289        C  0.12876376  0.84638244  0.85026724     0.82700
N290        N  0.15172489  0.84802588  0.82410185    -0.81000
C291        C  0.35856606  0.70138298  0.80983404     0.80100
N292        N  0.33453097  0.68222994  0.83662550    -0.78200
C293        C  0.36240647  0.69062334  0.86138379     0.82600
N294        N  0.41589663  0.71834805  0.85893766    -0.78100
C295        C  0.44107792  0.73749052  0.83218356     0.82700
N296        N  0.41222332  0.72856980  0.80762048    -0.79800
O297        O  0.44053766  0.66816084  0.30210025    -0.71900
O298        O  0.06799663  0.76052345  0.36430852    -0.72100
O299        O  0.43393546  0.66695887  0.36115561    -0.71900
O300        O  0.06995983  0.74905023  0.30559073    -0.71900
O301        O  0.07374315  0.82091963  0.29503355    -0.71900
O302        O  0.44709304  0.74445777  0.36264144    -0.71900
O303        O  0.08132533  0.83670794  0.35358692    -0.71900
O304        O  0.44449831  0.74144301  0.30344028    -0.72100
V305        V  0.01674195  0.73191816  0.33405755     1.35200
V306        V  0.02506027  0.80399215  0.32741823     1.35200
C307        C  0.42509699  0.69699842  0.29260850     0.77400
C308        C  0.09242929  0.80930034  0.36895286     0.77400
C309        C  0.42249598  0.69714443  0.37233343     0.77300
C310        C  0.08864870  0.79007098  0.28965645     0.77300
C311        C  0.31108420  0.69313009  0.19110697     0.80100
N312        N  0.31944073  0.67511089  0.16585874    -0.78200
C313        C  0.30381470  0.68250480  0.13932493     0.82600
N314        N  0.27897722  0.70849970  0.13811027    -0.78100
C315        C  0.27016595  0.72704787  0.16301779     0.82700
N316        N  0.28624819  0.71919454  0.18937736    -0.79800
C317        C  0.22320323  0.80844286  0.13342396     0.80100
N318        N  0.20019237  0.81333471  0.15786002    -0.78200
C319        C  0.19818680  0.78983545  0.18399821     0.82600
N320        N  0.22116545  0.76181038  0.18557925    -0.78100
C321        C  0.24426471  0.75630767  0.16119847     0.82700
N322        N  0.24475807  0.77939030  0.13510362    -0.79800
O323        O  0.26588839  0.81052614  0.69105041    -0.71900
O324        O  0.29383755  0.73987777  0.63168188    -0.72100
O325        O  0.26627282  0.81049727  0.63172124    -0.71900
O326        O  0.29652361  0.74277411  0.69044084    -0.71900
O327        O  0.21338844  0.68162088  0.69624164    -0.71900
O328        O  0.18537927  0.74333428  0.63046682    -0.71900
O329        O  0.21320296  0.67361431  0.63729991    -0.71900
O330        O  0.18283416  0.74890942  0.68937430    -0.72100
V331        V  0.27911029  0.77478307  0.66120084     1.35200
V332        V  0.20019164  0.71302586  0.66326891     1.35200
C333        C  0.21870866  0.79112578  0.70013861     0.77400
C334        C  0.25799031  0.69337618  0.62517766     0.77400
C335        C  0.22156441  0.78846961  0.62054537     0.77300
C336        C  0.26067159  0.70191411  0.70397758     0.77300
C337        C  0.27762308  0.58490501  0.52690020     0.80100
N338        N  0.25315709  0.53175174  0.52842472    -0.78200
C339        C  0.24872168  0.50476379  0.50392568     0.82600
N340        N  0.26964876  0.53134087  0.47773189    -0.78100
C341        C  0.29436412  0.58436177  0.47561938     0.82700
N342        N  0.29749741  0.61046732  0.50034628    -0.79800
C343        C  0.22127113  0.91523585  0.52431363     0.80100
N344        N  0.24411310  0.96812208  0.52427335    -0.78200
C345        C  0.24578171  0.99446511  0.49911414     0.82600
N346        N  0.22421209  0.96741630  0.47405711    -0.78100
C347        C  0.20045744  0.91436240  0.47413227     0.82700
N348        N  0.20019198  0.88947707  0.49915061    -0.79800
C349        C  0.24033995  0.58438410  0.57615332    -0.05900
C350        C  0.27853771  0.61361678  0.55365073     0.00100
C351        C  0.31472155  0.66845179  0.55735996    -0.08500
C352        C  0.30802835  0.69203831  0.58192853    -0.05900
C353        C  0.26690857  0.66345822  0.60286713     0.00100
C354        C  0.23391587  0.60794400  0.60079938    -0.08400
C355        C  0.19177368  0.57287985  0.62414722     0.62000
H356        H  0.21353339  0.54257475  0.57378323     0.12700
H357        H  0.33361615  0.73405587  0.58408598     0.12700
C358        C  0.35928502  0.70338954  0.53538032     0.62200
F359        F  0.17253794  0.52036400  0.62051958    -0.23000
F360        F  0.14971652  0.57876070  0.62234815    -0.20300
F361        F  0.21262005  0.58559973  0.65199797    -0.20000
F362        F  0.33864921  0.71207231  0.51057706    -0.20000
F363        F  0.38640382  0.68032631  0.52790518    -0.20400
F364        F  0.39538247  0.75174745  0.54676752    -0.23000
C365        C  0.21291578  0.86027413  0.60265683    -0.05900
C366        C  0.21397918  0.81599933  0.59613100     0.00100
C367        C  0.21851954  0.80529141  0.56654292    -0.08500
C368        C  0.22191862  0.83960408  0.54420922    -0.05900
C369        C  0.22074743  0.88419173  0.55035160     0.00100
C370        C  0.21600235  0.89478631  0.58022545    -0.08400
C371        C  0.21430476  0.94184893  0.58867212     0.62000
H372        H  0.21122425  0.86838914  0.62567530     0.12700
H373        H  0.22688096  0.83227369  0.52152289     0.12700
C374        C  0.22216625  0.75907194  0.55874694     0.62200
F375        F  0.20414270  0.94117260  0.61862908    -0.23000
F376        F  0.17491457  0.94202930  0.57366638    -0.20300
F377        F  0.26237537  0.98752567  0.58178588    -0.20000
F378        F  0.17819784  0.71303588  0.56995471    -0.20000
F379        F  0.26684102  0.76521429  0.57074027    -0.20400
F380        F  0.22505401  0.75473868  0.52851056    -0.23000
C381        C  0.33982382  0.62298497  0.39429603    -0.05900
C382        C  0.38227669  0.67521766  0.39674011     0.00100
C383        C  0.39099903  0.69934570  0.42420063    -0.08500
C384        C  0.36066011  0.66829095  0.44900275    -0.05900
C385        C  0.32063570  0.61457592  0.44725027     0.00100
C386        C  0.30839145  0.59209266  0.41886342    -0.08400
C387        C  0.26396528  0.53562164  0.41395087     0.62000
H388        H  0.33345290  0.60540498  0.37292602     0.12700
H389        H  0.37021468  0.68568481  0.47031437     0.12700
C390        C  0.43313758  0.75697469  0.42760467     0.62200
F391        F  0.25425410  0.52582449  0.38423491    -0.23000
F392        F  0.21781761  0.52501602  0.42753386    -0.20300
F393        F  0.27724705  0.50183403  0.42514271    -0.20000
F394        F  0.42238785  0.78698431  0.40953066    -0.20000
F395        F  0.48199709  0.76689041  0.41978924    -0.20400
F396        F  0.43523624  0.77247416  0.45635853    -0.23000
C397        C  0.35242099  0.69984383  0.27161243    -0.05900
C398        C  0.38647408  0.68221108  0.26900539     0.00100
C399        C  0.38918557  0.66073907  0.24227873    -0.08500
C400        C  0.36165828  0.66282172  0.21804884    -0.05900
C401        C  0.33173982  0.68580979  0.21954391     0.00100
C402        C  0.32465058  0.70198252  0.24756481    -0.08400
C403        C  0.28957759  0.72276760  0.25269972     0.62000
H404        H  0.35011524  0.71493461  0.29262903     0.12700
H405        H  0.36546343  0.64818765  0.19726567     0.12700
C406        C  0.42278919  0.63801120  0.23889162     0.62200
F407        F  0.28455266  0.72983435  0.28236413    -0.23000
F408        F  0.23948617  0.68748374  0.24284486    -0.20300
F409        F  0.31094903  0.77086282  0.23813515    -0.20000
F410        F  0.40541335  0.59665020  0.25904640    -0.20000
F411        F  0.99810125  0.70963323  0.24316507    -0.20400
F412        F  0.41999838  0.61931198  0.21091822    -0.23000
C413        C  0.18512149  0.78367532  0.23847350    -0.05900
C414        C  0.17279467  0.79584065  0.21090447     0.00100
C415        C  0.13600209  0.81151174  0.21016380    -0.08500
C416        C  0.11331500  0.81373210  0.23700023    -0.05900
C417        C  0.12359323  0.79851630  0.26404902     0.00100
C418        C  0.16099954  0.78428847  0.26499363    -0.08400
C419        C  0.17399646  0.76695414  0.29345780     0.62000
H420        H  0.21295290  0.77187226  0.23926181     0.12700
H421        H  0.08435836  0.82413698  0.23691416     0.12700
C422        C  0.11775625  0.82318635  0.18159234     0.62200
F423        F  0.22278352  0.77328163  0.29122762    -0.23000
F424        F  0.13627211  0.71454394  0.29955184    -0.20300
F425        F  0.17546623  0.79622810  0.31675325    -0.20000
F426        F  0.09823941  0.78101484  0.16328341    -0.20000
F427        F  0.15922043  0.86790385  0.16756512    -0.20400
F428        F  0.07785207  0.83176100  0.18652004    -0.23000
C429        C  0.10991908  0.80601703  0.42138048    -0.05900
C430        C  0.12787038  0.83320378  0.39412328     0.00100
C431        C  0.17331460  0.88508425  0.39288844    -0.08500
C432        C  0.19638367  0.90929990  0.41950234    -0.05900
C433        C  0.17574521  0.88373149  0.44713906     0.00100
C434        C  0.13211607  0.83028527  0.44810143    -0.08400
C435        C  0.10665798  0.79885257  0.47682204     0.62000
H436        H  0.07560309  0.76622344  0.42169181     0.12700
H437        H  0.23055530  0.94908241  0.41888064     0.12700
C438        C  0.19843986  0.91452680  0.36371792     0.62200
F439        F  0.06055860  0.75098324  0.47214300    -0.23000
F440        F  0.09399793  0.82631534  0.49525950    -0.20300
F441        F  0.14072122  0.78865153  0.49062161    -0.20000
F442        F  0.16690212  0.92844600  0.35029678    -0.20000
F443        F  0.20553312  0.88321473  0.34525016    -0.20400
F444        F  0.24733301  0.95997845  0.36754052    -0.23000
C445        C  0.34758965  0.68866965  0.75601822    -0.05900
C446        C  0.32650472  0.69155847  0.78315161     0.00100
C447        C  0.27678487  0.68667704  0.78368699    -0.08500
C448        C  0.25143121  0.68068116  0.75683495    -0.05900
C449        C  0.27535695  0.68294696  0.72978332     0.00100
C450        C  0.32261277  0.68391359  0.72935000    -0.08400
C451        C  0.34945824  0.68302984  0.70106315     0.62000
H452        H  0.38473536  0.69124684  0.75547202     0.12700
H453        H  0.21525319  0.67990334  0.75646950     0.12700
C454        C  0.25189195  0.69188977  0.81168722     0.62200
F455        F  0.36621932  0.64916366  0.70477100    -0.23000
F456        F  0.39278343  0.73286236  0.69442925    -0.20300
F457        F  0.31604975  0.66611088  0.67746447    -0.20000
F458        F  0.28830416  0.73670603  0.82605618    -0.20000
F459        F  0.23387091  0.64829849  0.83007222    -0.20400
F460        F  0.20926565  0.69561427  0.80579292    -0.23000
C461        C  0.20014758  0.83068195  0.77544285    -0.05900
C462        C  0.15043804  0.82398129  0.77254759     0.00100
C463        C  0.12979803  0.81779364  0.74384876    -0.08500
C464        C  0.15633780  0.81188516  0.72005391    -0.05900
C465        C  0.20344305  0.81392335  0.72364069     0.00100
C466        C  0.22751271  0.82668513  0.75138242    -0.08400
C467        C  0.28079476  0.83420197  0.75588007     0.62000
H468        H  0.21689101  0.83713950  0.79709595     0.12700
H469        H  0.13897868  0.80301541  0.69846958     0.12700
C470        C  0.08026551  0.81726005  0.73789629     0.62200
F471        F  0.31827548  0.87508907  0.73764296    -0.23000
F472        F  0.27858059  0.78903942  0.74921216    -0.20300
F473        F  0.29683329  0.84601517  0.78472339    -0.20000
F474        F  0.08268976  0.85874683  0.75153722    -0.20000
F475        F  0.03632408  0.77047143  0.74832197    -0.20400
F476        F  0.07449438  0.82231043  0.70797326    -0.23000
C477        C  0.18224917  0.83628735  0.09694967    -0.05900
C478        C  0.22726375  0.83774961  0.10597599     0.00100
C479        C  0.27598737  0.87161080  0.09080653    -0.08500
C480        C  0.27759351  0.90216758  0.06677673    -0.05900
C481        C  0.23305845  0.90209108  0.05794809     0.00100
C482        C  0.18418754  0.86827701  0.07331596    -0.08400
C483        C  0.13445041  0.86590495  0.06531812     0.62000
H484        H  0.14556242  0.81059958  0.10918430     0.12700
H485        H  0.31501376  0.92820170  0.05532148     0.12700
C486        C  0.32689107  0.87786882  0.10068945     0.62200
F487        F  0.09074818  0.82682993  0.08137156    -0.23000
F488        F  0.12486128  0.85558128  0.03571430    -0.20300
F489        F  0.14014766  0.91312187  0.07115640    -0.20000
F490        F  0.32492303  0.83223602  0.09596526    -0.20000
F491        F  0.33385213  0.88891498  0.13037438    -0.20400
F492        F  0.37065874  0.91821267  0.08527470    -0.23000
C493        C  0.30503607  0.64189623  0.06022816    -0.05900
C494        C  0.29960874  0.59372259  0.06567826     0.00100
C495        C  0.30405259  0.57903803  0.09469656    -0.08500
C496        C  0.30878113  0.61107015  0.11789372    -0.05900
C497        C  0.30880188  0.65691283  0.11293369     0.00100
C498        C  0.31080622  0.67460210  0.08335910    -0.08400
C499        C  0.31889919  0.72731574  0.07584807     0.62000
H500        H  0.30197664  0.65251595  0.03770845     0.12700
H501        H  0.30870933  0.59822769  0.14036193     0.12700
C502        C  0.29893306  0.52746800  0.10143569     0.62200
F503        F  0.33356486  0.74184828  0.04640290    -0.23000
F504        F  0.35865755  0.76554308  0.09264730    -0.20300
F505        F  0.27262669  0.72501841  0.08117771    -0.20000
F506        F  0.33471357  0.52391520  0.08410943    -0.20000
F507        F  0.24837526  0.48669138  0.09560820    -0.20400
F508        F  0.30848395  0.52244824  0.13072866    -0.23000
C509        C  0.14248778  0.84757281  0.90400037    -0.05900
C510        C  0.16167794  0.87290439  0.87620032     0.00100
C511        C  0.21025070  0.92286694  0.87421829    -0.08500
C512        C  0.23594691  0.94645933  0.90049257    -0.05900
C513        C  0.21431526  0.92261474  0.92824406     0.00100
C514        C  0.16803719  0.87152850  0.93011615    -0.08400
C515        C  0.14548244  0.84247401  0.95961006     0.62000
H516        H  0.10630810  0.80905754  0.90522101     0.12700
H517        H  0.27169798  0.98533743  0.89970522     0.12700
C518        C  0.23391571  0.95283886  0.84496039     0.62200
F519        F  0.10704562  0.79001409  0.95609906    -0.23000
F520        F  0.12299409  0.86457234  0.97495982    -0.20300
F521        F  0.18511600  0.84526434  0.97602373    -0.20000
F522        F  0.19680534  0.95689357  0.82985971    -0.20000
F523        F  0.25085358  0.92722187  0.82802980    -0.20400
F524        F  0.27695546  0.00320393  0.84888824    -0.23000
C525        C  0.28108053  0.62109348  0.88830887    -0.05900
C526        C  0.33336532  0.66485638  0.88989241     0.00100
C527        C  0.35567185  0.68068451  0.91816756    -0.08500
C528        C  0.32787473  0.64758759  0.94288085    -0.05900
C529        C  0.27807721  0.60109791  0.94045041     0.00100
C530        C  0.25254862  0.58960845  0.91325077    -0.08400
C531        C  0.19676278  0.54251734  0.91017122     0.62000
H532        H  0.26335752  0.60927921  0.86701795     0.12700
H533        H  0.34641736  0.65609321  0.96413813     0.12700
C534        C  0.40882120  0.73089643  0.92268237     0.62200
F535        F  0.17873634  0.53935784  0.88186234    -0.23000
F536        F  0.16319709  0.54607833  0.92947928    -0.20300
F537        F  0.19485128  0.49706767  0.91662827    -0.20000
F538        F  0.41256680  0.77212146  0.90673521    -0.20000
F539        F  0.44876358  0.72455252  0.91375247    -0.20400
F540        F  0.41587478  0.74411793  0.95209512    -0.23000
O541        O  0.71479000  0.45026384  0.03425512    -0.71900
O542        O  0.71312881  0.03697232  0.97502405    -0.72100
O543        O  0.70591119  0.45296312  0.97516552    -0.71900
O544        O  0.72744498  0.03381248  0.03311841    -0.71900
O545        O  0.80055889  0.03703220  0.02732805    -0.71900
O546        O  0.78352157  0.46841804  0.96501213    -0.71900
O547        O  0.79142292  0.05122877  0.96996584    -0.71900
O548        O  0.78553541  0.45212967  0.02327228    -0.72100
V549        V  0.73645532  0.50412476  0.00417355     1.35200
V550        V  0.76977783  0.99226584  0.99461601     1.35200
C551        C  0.74397729  0.43300207  0.03897141     0.77400
C552        C  0.75911862  0.06340742  0.96331072     0.77400
C553        C  0.73500037  0.44490332  0.95922285     0.77300
C554        C  0.77392157  0.05150558  0.04081589     0.77300
C555        C  0.62758441  0.32256797  0.80278358     0.80100
N556        N  0.57402190  0.29437253  0.80456740    -0.78200
C557        C  0.54812454  0.28908623  0.83048645     0.82600
N558        N  0.57632283  0.31219353  0.85494430    -0.78100
C559        C  0.62999916  0.34077268  0.85344967     0.82700
N560        N  0.65488257  0.34503788  0.82746762    -0.81000
C561        C  0.86663249  0.20486491  0.81156178     0.80100
N562        N  0.84086749  0.18740641  0.83802915    -0.78200
C563        C  0.86667334  0.19360688  0.86332858     0.82600
N564        N  0.91980483  0.21710572  0.86182677    -0.78100
C565        C  0.94674147  0.23431011  0.83545675     0.82700
N566        N  0.91995210  0.22779449  0.81023278    -0.79800
O567        O  0.94974670  0.16666049  0.30372065    -0.71900
O568        O  0.56811509  0.25658594  0.36799908    -0.72100
O569        O  0.93695794  0.16294607  0.36272127    -0.71900
O570        O  0.57548374  0.24600299  0.30979265    -0.71900
O571        O  0.58226842  0.31899295  0.29865726    -0.71900
O572        O  0.94532834  0.23839564  0.36313152    -0.71900
O573        O  0.58225618  0.33301513  0.35682707    -0.71900
O574        O  0.95141794  0.23894200  0.30378928    -0.72100
V575        V  0.51976386  0.22877925  0.33636840     1.35200
V576        V  0.52938779  0.30128443  0.32873725     1.35200
C577        C  0.93479220  0.19505533  0.29290285     0.77400
C578        C  0.59223070  0.30526788  0.37269065     0.77400
C579        C  0.92228065  0.19125816  0.37293442     0.77300
C580        C  0.59766171  0.28812805  0.29461500     0.77300
C581        C  0.82162467  0.19055792  0.19159151     0.80100
N582        N  0.82570725  0.17056014  0.16595300    -0.78200
C583        C  0.80695389  0.17749100  0.14043107     0.82600
N584        N  0.78328595  0.20467950  0.14080538    -0.78100
C585        C  0.77895130  0.22516883  0.16624305     0.82700
N586        N  0.79843402  0.21821120  0.19147007    -0.79800
C587        C  0.72845196  0.30502834  0.13986389     0.80100
N588        N  0.71090162  0.31339499  0.16544208    -0.78200
C589        C  0.71523223  0.29398347  0.19167729     0.82600
N590        N  0.73736930  0.26509286  0.19186823    -0.78100
C591        C  0.75404575  0.25538162  0.16621748     0.82700
N592        N  0.74925970  0.27532403  0.14032320    -0.79800
O593        O  0.77340262  0.31631669  0.69254756    -0.71900
O594        O  0.79715754  0.24436180  0.63177213    -0.72100
O595        O  0.76891943  0.31457976  0.63350999    -0.71900
O596        O  0.80492771  0.24908622  0.69052793    -0.71900
O597        O  0.72248087  0.18724380  0.69800752    -0.71900
O598        O  0.68792577  0.24727845  0.63448948    -0.71900
O599        O  0.71687074  0.17830782  0.63910401    -0.71900
O600        O  0.69053934  0.25347475  0.69313573    -0.72100
V601        V  0.78463511  0.27990199  0.66210035     1.35200
V602        V  0.70602090  0.21772740  0.66607342     1.35200
C603        C  0.72676471  0.29662181  0.70274539     0.77400
C604        C  0.76059906  0.19776821  0.62579967     0.77400
C605        C  0.72304535  0.29228139  0.62388777     0.77300
C606        C  0.77037101  0.20847693  0.70476513     0.77300
C607        C  0.76905786  0.08369898  0.52625641     0.80100
N608        N  0.74023671  0.03011103  0.52806345    -0.78200
C609        C  0.73400986  0.00175724  0.50384414     0.82600
N610        N  0.75750821  0.02728101  0.47779452    -0.78100
C611        C  0.78676056  0.08042181  0.47530247     0.82700
N612        N  0.79165763  0.10800107  0.49971619    -0.79800
C613        C  0.72147561  0.41617022  0.52654533     0.80100
N614        N  0.74573375  0.46923718  0.52578658    -0.78200
C615        C  0.74832834  0.49519155  0.50025044     0.82600
N616        N  0.72618004  0.46763955  0.47544896    -0.78100
C617        C  0.70092192  0.41444757  0.47627260     0.82700
N618        N  0.69971044  0.38988125  0.50163113    -0.79800
C619        C  0.73740494  0.08659531  0.57674281    -0.05900
C620        C  0.77277806  0.11455816  0.55283985     0.00100
C621        C  0.80867789  0.17000101  0.55521729    -0.08500
C622        C  0.80510552  0.19472927  0.58028788    -0.05900
C623        C  0.76698784  0.16705531  0.60281496     0.00100
C624        C  0.73365373  0.11143806  0.60161379    -0.08400
C625        C  0.69332924  0.07756098  0.62601254     0.62000
H626        H  0.71052715  0.04459674  0.57542010     0.12700
H627        H  0.83044895  0.23692090  0.58167654     0.12700
C628        C  0.84943750  0.20449108  0.53134587     0.62200
F629        F  0.67380022  0.02484261  0.62309331    -0.23000
F630        F  0.65113751  0.08336346  0.62503361    -0.20300
F631        F  0.71623443  0.09173100  0.65331048    -0.20000
F632        F  0.82394969  0.20774768  0.50713611    -0.20000
F633        F  0.87910035  0.18421727  0.52370998    -0.20400
F634        F  0.88417069  0.25509191  0.54044517    -0.23000
C635        C  0.72105206  0.36797922  0.60576545    -0.05900
C636        C  0.71312611  0.31902918  0.60009456     0.00100
C637        C  0.70689015  0.30196252  0.57094462    -0.08500
C638        C  0.71088218  0.33561006  0.54805730    -0.05900
C639        C  0.71938308  0.38524913  0.55320333     0.00100
C640        C  0.72362663  0.40147327  0.58283954    -0.08400
C641        C  0.73121550  0.45344905  0.59061712     0.62000
H642        H  0.72689029  0.38041713  0.62840512     0.12700
H643        H  0.70916029  0.32356093  0.52560933     0.12700
C644        C  0.69920059  0.24967786  0.56391583     0.62200
F645        F  0.72863776  0.45804424  0.62084688    -0.23000
F646        F  0.69214960  0.45771721  0.57822438    -0.20300
F647        F  0.78014308  0.49443532  0.58028705    -0.20000
F648        F  0.65510829  0.20952718  0.57911504    -0.20000
F649        F  0.74297487  0.24975269  0.57219142    -0.20400
F650        F  0.69222903  0.23967493  0.53408831    -0.23000
C651        C  0.84173304  0.11412857  0.39500912    -0.05900
C652        C  0.88057349  0.16785671  0.39663469     0.00100
C653        C  0.88440594  0.19368190  0.42292220    -0.08500
C654        C  0.85211553  0.16360038  0.44744291    -0.05900
C655        C  0.81539830  0.10885583  0.44678270     0.00100
C656        C  0.80893925  0.08383678  0.41936967    -0.08400
C657        C  0.76953385  0.02546979  0.41528979     0.62000
H658        H  0.83923887  0.09526142  0.37450284     0.12700
H659        H  0.85746928  0.18309168  0.46791187     0.12700
C660        C  0.92369652  0.25224644  0.42557127     0.62200
F661        F  0.76734439  0.01186069  0.38611410    -0.23000
F662        F  0.71945939  0.01173789  0.42391324    -0.20300
F663        F  0.78402767  0.99664780  0.43165681    -0.20000
F664        F  0.91309326  0.27912216  0.40489912    -0.20000
F665        F  0.97439156  0.26444516  0.42078403    -0.20400
F666        F  0.92114322  0.26940229  0.45323468    -0.23000
C667        C  0.85503645  0.18261985  0.27189117    -0.05900
C668        C  0.89941748  0.17991724  0.26787123     0.00100
C669        C  0.91510378  0.17559953  0.23919392    -0.08500
C670        C  0.88708291  0.17705546  0.21509640    -0.05900
C671        C  0.84487010  0.18389688  0.21879286     0.00100
C672        C  0.82715251  0.18464220  0.24791761    -0.08400
C673        C  0.78018998  0.18885320  0.25423753     0.62000
H674        H  0.84436376  0.18650920  0.29416436     0.12700
H675        H  0.90008062  0.17573106  0.19295715     0.12700
C676        C  0.96330611  0.17311321  0.23399311     0.62200
F677        F  0.76482370  0.17896411  0.28382007    -0.23000
F678        F  0.73752856  0.15266711  0.23821263    -0.20300
F679        F  0.79323022  0.23898259  0.24693515    -0.20000
F680        F  0.95694794  0.13015865  0.24929021    -0.20000
F681        F  0.52176553  0.24121779  0.24125356    -0.20400
F682        F  0.97157703  0.16857932  0.20438837    -0.23000
C683        C  0.68985070  0.27215950  0.24496613    -0.05900
C684        C  0.69380515  0.30189441  0.21971591     0.00100
C685        C  0.67584799  0.33649367  0.22212506    -0.08500
C686        C  0.64687424  0.33278104  0.24771862    -0.05900
C687        C  0.63786544  0.29838511  0.27146495     0.00100
C688        C  0.66390204  0.27115089  0.27114107    -0.08400
C689        C  0.66451154  0.24052524  0.29793018     0.62000
H690        H  0.70569286  0.24781005  0.24398534     0.12700
H691        H  0.62885149  0.35519099  0.24870348     0.12700
C692        C  0.68640867  0.37737170  0.19833761     0.62200
F693        F  0.70452486  0.23150758  0.29538102    -0.23000
F694        F  0.61718015  0.19245826  0.30082836    -0.20300
F695        F  0.67300612  0.26852762  0.32323300    -0.20000
F696        F  0.65468325  0.35337177  0.17454573    -0.20000
F697        F  0.73894947  0.40513406  0.18930454    -0.20400
F698        F  0.67586501  0.41336415  0.20861461    -0.23000
C699        C  0.60616954  0.30512342  0.42573014    -0.05900
C700        C  0.62682720  0.32919015  0.39798232     0.00100
C701        C  0.67442677  0.37937143  0.39583988    -0.08500
C702        C  0.69808311  0.40518085  0.42197472    -0.05900
C703        C  0.67507832  0.38297140  0.44990318     0.00100
C704        C  0.62803777  0.33167391  0.45189198    -0.08400
C705        C  0.59835107  0.30564576  0.48097247     0.62000
H706        H  0.57001094  0.26654342  0.42668460     0.12700
H707        H  0.73424867  0.44369555  0.42070896     0.12700
C708        C  0.70030674  0.40557875  0.36614200     0.62200
F709        F  0.54847572  0.26187546  0.47662177    -0.23000
F710        F  0.59215938  0.34028730  0.49694491    -0.20300
F711        F  0.62551102  0.28943749  0.49724128    -0.20000
F712        F  0.67202694  0.42320445  0.35241409    -0.20000
F713        F  0.70224887  0.37023635  0.34836057    -0.20400
F714        F  0.75138280  0.44818775  0.36915658    -0.23000
C715        C  0.85549470  0.19161310  0.75756269    -0.05900
C716        C  0.83628230  0.19794501  0.78449072     0.00100
C717        C  0.78940119  0.19854055  0.78468347    -0.08500
C718        C  0.76405377  0.19265946  0.75794184    -0.05900
C719        C  0.78650263  0.19199342  0.73102405     0.00100
C720        C  0.83182214  0.18949985  0.73065532    -0.08400
C721        C  0.85580125  0.18583539  0.70191858     0.62000
H722        H  0.89060873  0.19046284  0.75751909     0.12700
H723        H  0.72914451  0.19417337  0.75746953     0.12700
C724        C  0.76784870  0.20972388  0.81206847     0.62200
F725        F  0.89005602  0.16982423  0.70685352    -0.23000
F726        F  0.88356313  0.23425982  0.68732112    -0.20300
F727        F  0.81647731  0.14979953  0.68403747    -0.20000
F728        F  0.80795306  0.25337963  0.82570192    -0.20000
F729        F  0.74488442  0.16680988  0.83141773    -0.20400
F730        F  0.72970798  0.21988951  0.80531031    -0.23000
C731        C  0.70784415  0.33578451  0.77778921    -0.05900
C732        C  0.65688097  0.32616936  0.77505719     0.00100
C733        C  0.63602184  0.31967479  0.74635888    -0.08500
C734        C  0.66401620  0.31646155  0.72240743    -0.05900
C735        C  0.71196512  0.32021212  0.72591418     0.00100
C736        C  0.73607508  0.33347163  0.75359224    -0.08400
C737        C  0.79024113  0.34306597  0.75782203     0.62000
H738        H  0.72470382  0.34260755  0.79942044     0.12700
H739        H  0.64668344  0.30722322  0.70081447     0.12700
C740        C  0.58418116  0.31476228  0.74052830     0.62200
F741        F  0.82660647  0.38459561  0.73953968    -0.23000
F742        F  0.78990531  0.29899615  0.75090192    -0.20300
F743        F  0.80632746  0.35511174  0.78664213    -0.20000
F744        F  0.58255374  0.35377000  0.75461388    -0.20000
F745        F  0.54241809  0.26607708  0.75047391    -0.20400
F746        F  0.57793710  0.31983139  0.71067147    -0.23000
C747        C  0.68586173  0.33323533  0.10455361    -0.05900
C748        C  0.73075362  0.33359142  0.11254681     0.00100
C749        C  0.77863308  0.36578546  0.09629295    -0.08500
C750        C  0.77916414  0.39455626  0.07171476    -0.05900
C751        C  0.73482194  0.39535639  0.06362660     0.00100
C752        C  0.68709770  0.36428335  0.08052498    -0.08400
C753        C  0.63813556  0.36429094  0.07388866     0.62000
H754        H  0.65008528  0.30937180  0.11788889     0.12700
H755        H  0.81586093  0.41876214  0.05926698     0.12700
C756        C  0.83011445  0.37266227  0.10567590     0.62200
F757        F  0.59515810  0.32752683  0.09131836    -0.23000
F758        F  0.62529393  0.35252518  0.04467108    -0.20300
F759        F  0.64720263  0.41306617  0.07932234    -0.20000
F760        F  0.82833822  0.32705321  0.10128928    -0.20000
F761        F  0.83827668  0.38487238  0.13518539    -0.20400
F762        F  0.87320522  0.41261832  0.08964433    -0.23000
C763        C  0.80266249  0.13725496  0.06056350    -0.05900
C764        C  0.79488260  0.08788408  0.06523234     0.00100
C765        C  0.79752940  0.07092402  0.09397587    -0.08500
C766        C  0.80432350  0.10285226  0.11768961    -0.05900
C767        C  0.80776465  0.15063229  0.11349988     0.00100
C768        C  0.80997008  0.16960620  0.08420610    -0.08400
C769        C  0.81987619  0.22333942  0.07753291     0.62000
H770        H  0.80044302  0.14924641  0.03822359     0.12700
H771        H  0.80366906  0.08886936  0.13995713     0.12700
C772        C  0.78923480  0.01761582  0.09971376     0.62200
F773        F  0.83256765  0.23793406  0.04793491    -0.23000
F774        F  0.86167250  0.26047648  0.09371104    -0.20300
F775        F  0.77511551  0.22301378  0.08445524    -0.20000
F776        F  0.82474817  0.01323194  0.08264361    -0.20000
F777        F  0.73847844  0.97883590  0.09258948    -0.20400
F778        F  0.79632687  0.00975994  0.12902604    -0.23000
C779        C  0.64069939  0.33986612  0.90757801    -0.05900
C780        C  0.66110865  0.36622678  0.88007641     0.00100
C781        C  0.70949014  0.41630128  0.87890542    -0.08500
C782        C  0.73529373  0.43774582  0.90541320    -0.05900
C783        C  0.71285459  0.41298594  0.93285328     0.00100
C784        C  0.66546332  0.36267170  0.93412439    -0.08400
C785        C  0.64140524  0.33301916  0.96334968     0.62000
H786        H  0.60430175  0.30152755  0.90820158     0.12700
H787        H  0.77176574  0.47605143  0.90509610     0.12700
C788        C  0.73251004  0.44907480  0.85037945     0.62200
F789        F  0.60068123  0.28157444  0.95929251    -0.23000
F790        F  0.62139471  0.35693781  0.97925809    -0.20300
F791        F  0.67944972  0.33235670  0.97956932    -0.20000
F792        F  0.69413039  0.45189028  0.83589228    -0.20000
F793        F  0.75205543  0.42707789  0.83234124    -0.20400
F794        F  0.77350334  0.49993699  0.85554503    -0.23000
C795        C  0.78201876  0.12852515  0.88928558    -0.05900
C796        C  0.83546790  0.16957724  0.89142522     0.00100
C797        C  0.85696482  0.18413055  0.91992997    -0.08500
C798        C  0.82735833  0.15118321  0.94428726    -0.05900
C799        C  0.77660681  0.10630714  0.94121396     0.00100
C800        C  0.75164576  0.09752935  0.91395810    -0.08400
C801        C  0.69416399  0.05425203  0.91065154     0.62000
H802        H  0.76466144  0.11824989  0.86782666     0.12700
H803        H  0.84532962  0.15802263  0.96566425     0.12700
C804        C  0.91115864  0.23254710  0.92503492     0.62200
F805        F  0.67730303  0.05347883  0.88228150    -0.23000
F806        F  0.66338908  0.06196143  0.92991558    -0.20300
F807        F  0.68653427  0.00608192  0.91703604    -0.20000
F808        F  0.91823756  0.27494566  0.90868233    -0.20000
F809        F  0.94953741  0.22333431  0.91708476    -0.20400
F810        F  0.91737146  0.24571426  0.95445534    -0.23000
O811        O  0.68095978  0.92956184  0.03324250    -0.71900
O812        O  0.75709646  0.55824092  0.97436816    -0.72100
O813        O  0.66432498  0.93199176  0.97496146    -0.71900
O814        O  0.76327150  0.55472494  0.03341868    -0.71900
O815        O  0.83513174  0.55488922  0.03257200    -0.71900
O816        O  0.74096419  0.94807834  0.96147684    -0.71900
O817        O  0.83522521  0.57167209  0.97404974    -0.71900
O818        O  0.75194617  0.93406463  0.01913663    -0.72100
V819        V  0.69764199  0.98307842  0.00389511     1.35200
V820        V  0.80852085  0.51156116  0.99880849     1.35200
C821        C  0.71197051  0.91403316  0.03624849     0.77400
C822        C  0.80446383  0.58409079  0.96447954     0.77400
C823        C  0.69184530  0.92428578  0.95739433     0.77300
C824        C  0.80760542  0.57033334  0.04395199     0.77300
C825        C  0.57814929  0.79486402  0.80313521     0.80100
N826        N  0.52455290  0.76844905  0.80467320    -0.78200
C827        C  0.49924294  0.76737595  0.83006346     0.82600
N828        N  0.52789737  0.79256833  0.85404647    -0.78100
C829        C  0.58146474  0.81988878  0.85255923     0.82700
N830        N  0.60566620  0.82016911  0.82725430    -0.81000
C831        C  0.90361746  0.73192487  0.81068325     0.80100
N832        N  0.88045691  0.71309379  0.83783175    -0.78200
C833        C  0.90896993  0.71911803  0.86214427     0.82600
N834        N  0.96234955  0.74539877  0.85892959    -0.78100
C835        C  0.98679814  0.76504446  0.83204638     0.82700
N836        N  0.95720821  0.75780841  0.80805629    -0.79800
O837        O  0.96500964  0.70177883  0.30410103    -0.71900
O838        O  0.53856199  0.71664616  0.36500047    -0.72100
O839        O  0.96277456  0.71056208  0.36264593    -0.71900
O840        O  0.54523329  0.71502032  0.30578219    -0.71900
O841        O  0.54948554  0.78793154  0.29894368    -0.71900
O842        O  0.97598194  0.78819381  0.35957686    -0.71900
O843        O  0.55250103  0.79414548  0.35814892    -0.71900
O844        O  0.96920184  0.77522531  0.30104105    -0.72100
V845        V  0.48984965  0.69312354  0.33343961     1.35200
V846        V  0.49829094  0.76569096  0.33079717     1.35200
C847        C  0.94883139  0.72887546  0.29285433     0.77400
C848        C  0.56231665  0.76436888  0.37203602     0.77400
C849        C  0.95155787  0.74240120  0.37142557     0.77300
C850        C  0.56536876  0.75837109  0.29206368     0.77300
C851        C  0.81607091  0.69653197  0.19459957     0.80100
N852        N  0.82674343  0.67938937  0.16974054    -0.78200
C853        C  0.80800281  0.68198409  0.14320562     0.82600
N854        N  0.77747597  0.70207386  0.14148455    -0.78100
C855        C  0.76588395  0.71921158  0.16609793     0.82700
N856        N  0.78525941  0.71623406  0.19246772    -0.79800
C857        C  0.70609854  0.78887270  0.13601241     0.80100
N858        N  0.68264029  0.79259532  0.16065250    -0.78200
C859        C  0.68477161  0.77243721  0.18712376     0.82600
N860        N  0.71166583  0.74821344  0.18859158    -0.78100
C861        C  0.73485552  0.74338539  0.16400367     0.82700
N862        N  0.73177043  0.76370458  0.13770334    -0.79800
O863        O  0.73947345  0.80505135  0.69799581    -0.71900
O864        O  0.79534562  0.76523038  0.63543100    -0.72100
O865        O  0.72976754  0.79808353  0.63981405    -0.71900
O866        O  0.80753504  0.77452026  0.69424912    -0.71900
O867        O  0.74044410  0.69557358  0.70361567    -0.71900
O868        O  0.66600858  0.71579621  0.64244681    -0.71900
O869        O  0.73316935  0.68377771  0.64474090    -0.71900
O870        O  0.67094028  0.72502152  0.70107691    -0.72100
V871        V  0.76690089  0.78411255  0.66701454     1.35200
V872        V  0.70391305  0.70641800  0.67291993     1.35200
C873        C  0.69437323  0.77164413  0.70928914     0.77400
C874        C  0.77325927  0.71720998  0.62953044     0.77400
C875        C  0.68543461  0.76164919  0.63144815     0.77300
C876        C  0.78756918  0.73203831  0.70891615     0.77300
C877        C  0.79854688  0.63080305  0.52335571     0.80100
N878        N  0.77596551  0.57791682  0.52426917    -0.78200
C879        C  0.77432824  0.55270751  0.49946772     0.82600
N880        N  0.79588854  0.58080223  0.47372506    -0.78100
C881        C  0.81915195  0.63370283  0.47251994     0.82700
N882        N  0.82067624  0.65818879  0.49755271    -0.79800
C883        C  0.66342965  0.86316064  0.53227264     0.80100
N884        N  0.69229711  0.91660829  0.53132932    -0.78200
C885        C  0.70150058  0.94370343  0.50525464     0.82600
N886        N  0.68177857  0.91686772  0.48002036    -0.78100
C887        C  0.65246276  0.86345434  0.48070004     0.82700
N888        N  0.64438483  0.83746578  0.50680220    -0.79800
C889        C  0.80034224  0.63718280  0.57789859    -0.05900
C890        C  0.79836728  0.65799992  0.55030118     0.00100
C891        C  0.79304472  0.70172663  0.54939024    -0.08500
C892        C  0.79134400  0.72345027  0.57616166    -0.05900
C893        C  0.78952687  0.70023747  0.60352336     0.00100
C894        C  0.79463431  0.65667182  0.60459917    -0.08400
C895        C  0.79308202  0.63011413  0.63369221     0.62000
H896        H  0.80423742  0.60386919  0.57843218     0.12700
H897        H  0.78716830  0.75660423  0.57595068     0.12700
C898        C  0.78477544  0.72316978  0.52080675     0.62200
F899        F  0.80931311  0.59588291  0.63012786    -0.23000
F900        F  0.74222726  0.60183639  0.64545208    -0.20300
F901        F  0.82608664  0.66728432  0.65343069    -0.20000
F902        F  0.74500643  0.68255509  0.50514669    -0.20000
F903        F  0.83092763  0.74922894  0.50386227    -0.20400
F904        F  0.77008705  0.75823299  0.52599906    -0.23000
C905        C  0.66199864  0.82192318  0.61267423    -0.05900
C906        C  0.65998251  0.77522379  0.60881563     0.00100
C907        C  0.64831832  0.75242092  0.58093538    -0.08500
C908        C  0.64822701  0.78192478  0.55670675    -0.05900
C909        C  0.65670760  0.83207582  0.55982066     0.00100
C910        C  0.65951157  0.85049539  0.58871919    -0.08400
C911        C  0.66169815  0.90053225  0.59471552     0.62000
H912        H  0.66973335  0.83808472  0.63450817     0.12700
H913        H  0.64473079  0.76694070  0.53488490     0.12700
C914        C  0.63826819  0.69841355  0.57662270     0.62200
F915        F  0.65148589  0.90335268  0.62427072    -0.23000
F916        F  0.62418325  0.90227894  0.57857115    -0.20300
F917        F  0.71128728  0.94369230  0.58726508    -0.20000
F918        F  0.59666263  0.66223683  0.59497350    -0.20000
F919        F  0.68249055  0.69830438  0.58338236    -0.20400
F920        F  0.62548048  0.68267158  0.54782308    -0.23000
C921        C  0.86471203  0.67410878  0.39196578    -0.05900
C922        C  0.91068640  0.72388306  0.39514422     0.00100
C923        C  0.92086706  0.74787304  0.42273642    -0.08500
C924        C  0.88862771  0.71779374  0.44733533    -0.05900
C925        C  0.84583605  0.66536855  0.44481742     0.00100
C926        C  0.83108829  0.64483049  0.41615789    -0.08400
C927        C  0.78095787  0.59219610  0.41061462     0.62000
H928        H  0.85683416  0.65685565  0.37042244     0.12700
H929        H  0.89844170  0.73445042  0.46898503     0.12700
C930        C  0.96647305  0.80405335  0.42630529     0.62200
F931        F  0.76767846  0.58785224  0.38119258    -0.23000
F932        F  0.73925131  0.58647145  0.42711956    -0.20300
F933        F  0.78788265  0.55208563  0.41796278    -0.20000
F934        F  0.96020604  0.83686717  0.40780264    -0.20000
F935        F  0.01349211  0.80911526  0.41910581    -0.20400
F936        F  0.96916989  0.82012040  0.45496698    -0.23000
C937        C  0.87130064  0.72400429  0.27282891    -0.05900
C938        C  0.90762592  0.70914429  0.27040734     0.00100
C939        C  0.90861655  0.68392824  0.24486091    -0.08500
C940        C  0.87525689  0.67758892  0.22172794    -0.05900
C941        C  0.84210225  0.69696742  0.22275611     0.00100
C942        C  0.83829106  0.71849508  0.24963216    -0.08400
C943        C  0.80119361  0.73704301  0.25429207     0.62000
H944        H  0.87090493  0.74256985  0.29288735     0.12700
H945        H  0.87700587  0.65928953  0.20193640     0.12700
C946        C  0.94696681  0.66680489  0.24116633     0.62200
F947        F  0.80139314  0.75176402  0.28303995    -0.23000
F948        F  0.75009586  0.69693362  0.24860506    -0.20300
F949        F  0.81641725  0.78022342  0.23597110    -0.20000
F950        F  0.93701698  0.62981018  0.26297388    -0.20000
F951        F  0.47499776  0.67610449  0.24380323    -0.20400
F952        F  0.94267990  0.64470199  0.21408530    -0.23000
C953        C  0.66546099  0.75724926  0.24119426    -0.05900
C954        C  0.65843601  0.77664580  0.21439426     0.00100
C955        C  0.62602919  0.79767351  0.21483889    -0.08500
C956        C  0.59957293  0.79452242  0.24148940    -0.05900
C957        C  0.60356561  0.77105952  0.26731706     0.00100
C958        C  0.63878701  0.75396864  0.26755604    -0.08400
C959        C  0.64780938  0.73102265  0.29523559     0.62000
H960        H  0.69087314  0.74253933  0.24138129     0.12700
H961        H  0.57270983  0.80756043  0.24195599     0.12700
C962        C  0.61714014  0.82196484  0.18769555     0.62200
F963        F  0.69291155  0.73018209  0.29244844    -0.23000
F964        F  0.60563737  0.68004287  0.30053225    -0.20300
F965        F  0.65370651  0.76083384  0.31926923    -0.20000
F966        F  0.59204223  0.78465099  0.16649626    -0.20000
F967        F  0.66482073  0.86386888  0.17651187    -0.20400
F968        F  0.58571840  0.84087408  0.19407891    -0.23000
C969        C  0.57137948  0.75706326  0.42487523    -0.05900
C970        C  0.59526026  0.78457528  0.39823778     0.00100
C971        C  0.64047946  0.83639575  0.39886172    -0.08500
C972        C  0.65828011  0.85974797  0.42623465    -0.05900
C973        C  0.63188119  0.83390906  0.45297803     0.00100
C974        C  0.58667605  0.78152055  0.45222332    -0.08400
C975        C  0.55118212  0.75249941  0.47923104     0.62000
H976        H  0.53651831  0.71775254  0.42382736     0.12700
H977        H  0.69284021  0.89936802  0.42652140     0.12700
C978        C  0.67079093  0.86935532  0.37146167     0.62200
F979        F  0.50364091  0.70823160  0.47172330    -0.23000
F980        F  0.53965557  0.78468426  0.49386083    -0.20300
F981        F  0.57565731  0.73642023  0.49795169    -0.20000
F982        F  0.66399855  0.91060290  0.36845348    -0.20000
F983        F  0.65506824  0.84119282  0.34595144    -0.20400
F984        F  0.72389971  0.88945185  0.37445402    -0.23000
C985        C  0.89943462  0.75557178  0.75827343    -0.05900
C986        C  0.87155993  0.72634433  0.78409104     0.00100
C987        C  0.81517012  0.69420416  0.78335564    -0.08500
C988        C  0.78993807  0.69522174  0.75764722    -0.05900
C989        C  0.81802416  0.72714423  0.73287585     0.00100
C990        C  0.87401986  0.75658702  0.73273047    -0.08400
C991        C  0.90765083  0.78953300  0.70597846     0.62000
H992        H  0.94202805  0.77958218  0.75835405     0.12700
H993        H  0.74732549  0.67272667  0.75720634     0.12700
C994        C  0.78052156  0.65909520  0.80917544     0.62200
F995        F  0.95957998  0.80445288  0.70831105    -0.23000
F996        F  0.90719006  0.83460449  0.70330235    -0.20300
F997        F  0.88858761  0.76115905  0.68063807    -0.20000
F998        F  0.78422711  0.68962483  0.83239732    -0.20000
F999        F  0.79583529  0.62547989  0.81753080    -0.20400
F1000       F  0.72783672  0.62833500  0.80216436    -0.23000
C1001       C  0.65794924  0.80170116  0.78256968    -0.05900
C1002       C  0.60777227  0.79252690  0.77713503     0.00100
C1003       C  0.58887960  0.78164464  0.74784607    -0.08500
C1004       C  0.61973061  0.77744492  0.72585170    -0.05900
C1005       C  0.66881674  0.78521723  0.73193457     0.00100
C1006       C  0.68886565  0.79856139  0.76048676    -0.08400
C1007       C  0.74154974  0.80669296  0.76791001     0.62000
H1008       H  0.67257486  0.80969714  0.80474190     0.12700
H1009       H  0.60521756  0.76682396  0.70370124     0.12700
C1010       C  0.53702359  0.77461831  0.73941895     0.62200
F1011       F  0.78126271  0.84786205  0.75076429    -0.23000
F1012       F  0.74037215  0.76159881  0.76240275    -0.20300
F1013       F  0.75345569  0.81822941  0.79727483    -0.20000
F1014       F  0.53505592  0.81636590  0.74905414    -0.20000
F1015       F  0.49530718  0.72826506  0.75191389    -0.20400
F1016       F  0.53101857  0.77257087  0.70911847    -0.23000
C1017       C  0.65984510  0.81072523  0.09969676    -0.05900
C1018       C  0.70705340  0.81641798  0.10845659     0.00100
C1019       C  0.75479189  0.85323292  0.09316028    -0.08500
C1020       C  0.75318516  0.88183617  0.06905250    -0.05900
C1021       C  0.70636352  0.87735881  0.06051206     0.00100
C1022       C  0.65861885  0.84124155  0.07623060    -0.08400
C1023       C  0.60686547  0.83512571  0.06879137     0.62000
H1024       H  0.62394922  0.78303144  0.11206406     0.12700
H1025       H  0.78970984  0.91000239  0.05736124     0.12700
C1026       C  0.80785309  0.86489137  0.10309938     0.62200
F1027       F  0.56475358  0.79403749  0.08482865    -0.23000
F1028       F  0.59726178  0.82524586  0.03913325    -0.20300
F1029       F  0.60912750  0.88049326  0.07527731    -0.20000
F1030       F  0.81090937  0.82194033  0.09875668    -0.20000
F1031       F  0.81396973  0.87663335  0.13270085    -0.20400
F1032       F  0.84957624  0.90711140  0.08746941    -0.23000
C1033       C  0.82782625  0.65287252  0.06431807    -0.05900
C1034       C  0.82449775  0.60553965  0.06901510     0.00100
C1035       C  0.82412210  0.58782246  0.09815088    -0.08500
C1036       C  0.82120289  0.61544319  0.12181390    -0.05900
C1037       C  0.81872970  0.65992869  0.11708702     0.00100
C1038       C  0.82602592  0.68112822  0.08791799    -0.08400
C1039       C  0.83081392  0.73252327  0.08129239     0.62000
H1040       H  0.82843375  0.66590838  0.04177500     0.12700
H1041       H  0.81759000  0.60044708  0.14420193     0.12700
C1042       C  0.82312168  0.53811794  0.10415619     0.62200
F1043       F  0.85137660  0.75192153  0.05306877    -0.23000
F1044       F  0.86423492  0.76972170  0.10096763    -0.20300
F1045       F  0.78152743  0.72491397  0.08341522    -0.20000
F1046       F  0.86568534  0.54179692  0.08984396    -0.20000
F1047       F  0.77697153  0.49572045  0.09401489    -0.20400
F1048       F  0.82572429  0.52932483  0.13401360    -0.23000
C1049       C  0.59204945  0.82107689  0.90667362    -0.05900
C1050       C  0.61316516  0.84584749  0.87892127     0.00100
C1051       C  0.66349696  0.89397292  0.87720086    -0.08500
C1052       C  0.69021804  0.91532220  0.90351039    -0.05900
C1053       C  0.66721910  0.89234061  0.93122465     0.00100
C1054       C  0.61802657  0.84364991  0.93295598    -0.08400
C1055       C  0.59336195  0.81514163  0.96235758     0.62000
H1056       H  0.55436567  0.78394926  0.90769081     0.12700
H1057       H  0.72817328  0.95224750  0.90276386     0.12700
C1058       C  0.68805249  0.92478631  0.84824129     0.62200
F1059       F  0.55138963  0.76413645  0.95865421    -0.23000
F1060       F  0.57488150  0.84089864  0.97780176    -0.20300
F1061       F  0.63047750  0.81319684  0.97880487    -0.20000
F1062       F  0.65168129  0.93005915  0.83314597    -0.20000
F1063       F  0.70481395  0.89936006  0.83102339    -0.20400
F1064       F  0.73135505  0.97475403  0.85276455    -0.23000
C1065       C  0.82646194  0.65301802  0.89031514    -0.05900
C1066       C  0.88074449  0.69248541  0.89100701     0.00100
C1067       C  0.90559719  0.70319976  0.91877694    -0.08500
C1068       C  0.87752974  0.66880970  0.94309076    -0.05900
C1069       C  0.82497556  0.62627138  0.94121203     0.00100
C1070       C  0.79778284  0.62050533  0.91503022    -0.08400
C1071       C  0.73934378  0.57915323  0.91269315     0.62000
H1072       H  0.80649798  0.64585084  0.86988362     0.12700
H1073       H  0.89736615  0.67363586  0.96365080     0.12700
C1074       C  0.96105781  0.75016121  0.92335572     0.62200
F1075       F  0.72069100  0.58056551  0.88517311    -0.23000
F1076       F  0.71131855  0.58764554  0.93358861    -0.20300
F1077       F  0.72982198  0.52975383  0.91745062    -0.20000
F1078       F  0.96689119  0.79489034  0.91073688    -0.20000
F1079       F  0.99764325  0.74175701  0.91091773    -0.20400
F1080       F  0.97162445  0.75901679  0.95307038    -0.23000
loop_ 
_geom_bond_atom_site_label_1 
_geom_bond_atom_site_label_2 
_geom_bond_distance 
_geom_bond_site_symmetry_2 
_ccdc_geom_bond_type 
O1            V9   1.919       .  S
O1           C11   1.269       .  A
O2          V279   1.920       .  S
O2           C12   1.270       .  A
O3            V9   1.888   1_556  S
O3           C13   1.260       .  A
O4          V279   1.882   1_554  S
O4           C14   1.259       .  A
O5           V10   1.918   1_554  S
O5           C14   1.269       .  A
O6          V280   1.914       .  S
O6           C13   1.269       .  A
O7           V10   1.875       .  S
O7           C12   1.259       .  A
O8          V280   1.876   1_554  S
O8           C11   1.261       .  A
V9          O272   1.919   1_554  S
V9          O274   1.884       .  S
V9          V280   2.080   1_554  T
V10         O276   1.918   1_545  S
V10         O278   1.874   1_546  S
V10         V279   2.080       .  T
C11         C211   1.491       .  S
C12         C259   1.480       .  S
C13         C243   1.484       .  S
C14         C224   1.474       .  S
C15         C192   1.495       .  S
C15          N16   1.362       .  A
C15          N20   1.357       .  A
N16          C17   1.362       .  A
C17         C565   1.478   1_455  S
C17          N18   1.362       .  A
N18          C19   1.362       .  A
C19         C240   1.493       .  S
C19          N20   1.352       .  A
C21         C176   1.491       .  S
C21          N22   1.357       .  A
C21          N26   1.362       .  A
N22          C23   1.360       .  A
C23         C256   1.501       .  S
C23          N24   1.360       .  A
N24          C25   1.359       .  A
C25         C557   1.478       .  S
C25          N26   1.358       .  A
O27         V575   1.915       .  S
O27          C37   1.268       .  A
O28          V35   1.915   1_455  S
O28          C38   1.269       .  A
O29         V575   1.878       .  S
O29          C39   1.259       .  A
O30          V35   1.870   1_455  S
O30          C40   1.255       .  A
O31          V36   1.924       .  S
O31          C40   1.272       .  A
O32         V576   1.923       .  S
O32          C39   1.270       .  A
O33          V36   1.871       .  S
O33          C38   1.255       .  A
O34         V576   1.883       .  S
O34          C37   1.259       .  A
V35         O567   1.916       .  S
V35         O569   1.875       .  S
V35          V36   2.083   1_655  T
V36         O572   1.925   1_455  S
V36         O574   1.874   1_455  S
C37         C128   1.472       .  S
C38         C160   1.467       .  S
C39         C112   1.478       .  S
C40         C147   1.489       .  S
C41         C131   1.495       .  S
C41          N42   1.358       .  A
C41          N46   1.360       .  A
N42          C43   1.357       .  A
C43         C227   1.493       .  S
C43          N44   1.360       .  A
N44          C45   1.360       .  A
C45          C51   1.476       .  S
C45          N46   1.360       .  A
C47         C208   1.476       .  S
C47          N48   1.356       .  A
C47          N52   1.358       .  A
N48          C49   1.356       .  A
C49         C144   1.498       .  S
C49          N50   1.365       .  A
N50          C51   1.359       .  A
C51          N52   1.357       .  A
O53          V61   1.911       .  S
O53          C63   1.267       .  A
O54          V61   1.916       .  S
O54          C64   1.269       .  A
O55          V61   1.869       .  S
O55          C65   1.257       .  A
O56          V61   1.871       .  S
O56          C66   1.255       .  A
O57          V62   1.921       .  S
O57          C66   1.271       .  A
O58          V62   1.920       .  S
O58          C65   1.270       .  A
O59          V62   1.885       .  S
O59          C64   1.260       .  A
O60          V62   1.887       .  S
O60          C63   1.259       .  A
V61          V62   2.085       .  T
C63         C195   1.471       .  S
C64          C83   1.478       .  S
C65          C96   1.472       .  S
C66         C179   1.485       .  S
C67          C80   1.497       .  S
C67          N68   1.366       .  A
C67          N72   1.358       .  A
N68          C69   1.361       .  A
C69         C345   1.480   1_545  S
C69          N70   1.358       .  A
N70          C71   1.359       .  A
C71         C115   1.497       .  S
C71          N72   1.359       .  A
C73          C99   1.492       .  S
C73          N74   1.361       .  A
C73          N78   1.353       .  A
N74          C75   1.362       .  A
C75         C339   1.477       .  S
C75          N76   1.361       .  A
N76          C77   1.362       .  A
C77         C163   1.485       .  S
C77          N78   1.350       .  A
C79          C80   1.407       .  A
C79          C84   1.405       .  A
C79          H86   1.084       .  S
C80          C81   1.429       .  A
C81          C82   1.410       .  A
C81          C88   1.521       .  S
C82          C83   1.399       .  A
C82          H87   1.083       .  S
C83          C84   1.417       .  A
C84          C85   1.519       .  S
C85          F89   1.384       .  S
C85          F90   1.383       .  S
C85          F91   1.382       .  S
C88          F92   1.384       .  S
C88          F93   1.381       .  S
C88          F94   1.385       .  S
C95          C96   1.405       .  A
C95         C100   1.406       .  A
C95         H102   1.084       .  S
C96          C97   1.409       .  A
C97          C98   1.404       .  A
C97         C104   1.518       .  S
C98          C99   1.413       .  A
C98         H103   1.081       .  S
C99         C100   1.420       .  A
C100        C101   1.520       .  S
C101        F105   1.385       .  S
C101        F106   1.384       .  S
C101        F107   1.383       .  S
C104        F108   1.383       .  S
C104        F109   1.380       .  S
C104        F110   1.385       .  S
C111        C112   1.402       .  A
C111        C116   1.405       .  A
C111        H118   1.084       .  S
C112        C113   1.412       .  A
C113        C114   1.409       .  A
C113        C120   1.516       .  S
C114        C115   1.412       .  A
C114        H119   1.081       .  S
C115        C116   1.423       .  A
C116        C117   1.519       .  S
C117        F121   1.385       .  S
C117        F122   1.384       .  S
C117        F123   1.382       .  S
C120        F124   1.383       .  S
C120        F125   1.379       .  S
C120        F126   1.385       .  S
C127        C128   1.401       .  A
C127        C132   1.408       .  A
C127        H134   1.084       .  S
C128        C129   1.410       .  A
C129        C130   1.406       .  A
C129        C136   1.517       .  S
C130        C131   1.412       .  A
C130        H135   1.082       .  S
C131        C132   1.423       .  A
C132        C133   1.520       .  S
C133        F137   1.385       .  S
C133        F138   1.384       .  S
C133        F139   1.382       .  S
C136        F140   1.383       .  S
C136        F142   1.384       .  S
C136        F681   1.382       .  S
F141        C676   1.382   1_455  S
C143        C144   1.404       .  A
C143        C148   1.401       .  A
C143        H150   1.082       .  S
C144        C145   1.428       .  A
C145        C146   1.411       .  A
C145        C152   1.520       .  S
C146        C147   1.403       .  A
C146        H151   1.083       .  S
C147        C148   1.425       .  A
C148        C149   1.523       .  S
C149        F153   1.385       .  S
C149        F154   1.383       .  S
C149        F155   1.383       .  S
C152        F156   1.383       .  S
C152        F157   1.384       .  S
C152        F158   1.385       .  S
C159        C160   1.396       .  A
C159        C164   1.404       .  A
C159        H166   1.084       .  S
C160        C161   1.416       .  A
C161        C162   1.404       .  A
C161        C168   1.520       .  S
C162        C163   1.404       .  A
C162        H167   1.082       .  S
C163        C164   1.428       .  A
C164        C165   1.523       .  S
C165        F169   1.385       .  S
C165        F170   1.384       .  S
C165        F171   1.381       .  S
C168        F172   1.383       .  S
C168        F173   1.382       .  S
C168        F174   1.385       .  S
C175        C176   1.402       .  A
C175        C180   1.402       .  A
C175        H182   1.083       .  S
C176        C177   1.424       .  A
C177        C178   1.407       .  A
C177        C184   1.517       .  S
C178        C179   1.402       .  A
C178        H183   1.084       .  S
C179        C180   1.425       .  A
C180        C181   1.522       .  S
C181        F185   1.385       .  S
C181        F186   1.383       .  S
C181        F187   1.384       .  S
C184        F188   1.382       .  S
C184        F189   1.382       .  S
C184        F190   1.385       .  S
C191        C192   1.412       .  A
C191        C196   1.403       .  A
C191        H198   1.081       .  S
C192        C193   1.424       .  A
C193        C194   1.411       .  A
C193        C200   1.520       .  S
C194        C195   1.402       .  A
C194        H199   1.083       .  S
C195        C196   1.408       .  A
C196        C197   1.519       .  S
C197        F201   1.383       .  S
C197        F202   1.383       .  S
C197        F203   1.384       .  S
C200        F204   1.384       .  S
C200        F205   1.383       .  S
C200        F206   1.385       .  S
C207        C208   1.406       .  A
C207        C212   1.413       .  A
C207        H214   1.083       .  S
C208        C209   1.412       .  A
C209        C210   1.398       .  A
C209        C216   1.522       .  S
C210        C211   1.409       .  A
C210        H215   1.082       .  S
C211        C212   1.420       .  A
C212        C213   1.517       .  S
C213        F217   1.385       .  S
C213        F218   1.382       .  S
C213        F219   1.383       .  S
C216        F220   1.381       .  S
C216        F221   1.384       .  S
C216        F222   1.385       .  S
C223        C224   1.401       .  A
C223        C228   1.408       .  A
C223        H230   1.084       .  S
C224        C225   1.412       .  A
C225        C226   1.406       .  A
C225        C232   1.517       .  S
C226        C227   1.410       .  A
C226        H231   1.082       .  S
C227        C228   1.423       .  A
C228        C229   1.519       .  S
C229        F233   1.385       .  S
C229        F234   1.383       .  S
C229        F235   1.383       .  S
C232        F236   1.383       .  S
C232        F237   1.381       .  S
C232        F238   1.385       .  S
C239        C240   1.405       .  A
C239        C244   1.407       .  A
C239        H246   1.082       .  S
C240        C241   1.427       .  A
C241        C242   1.408       .  A
C241        C248   1.522       .  S
C242        C243   1.401       .  A
C242        H247   1.083       .  S
C243        C244   1.419       .  A
C244        C245   1.519       .  S
C245        F249   1.385       .  S
C245        F250   1.382       .  S
C245        F251   1.383       .  S
C248        F252   1.384       .  S
C248        F253   1.382       .  S
C248        F254   1.385       .  S
C255        C256   1.413       .  A
C255        C260   1.407       .  A
C255        H262   1.078       .  S
C256        C257   1.424       .  A
C257        C258   1.406       .  A
C257        C264   1.520       .  S
C258        C259   1.405       .  A
C258        H263   1.084       .  S
C259        C260   1.411       .  A
C260        C261   1.518       .  S
C261        F265   1.384       .  S
C261        F266   1.383       .  S
C261        F267   1.381       .  S
C264        F268   1.384       .  S
C264        F269   1.383       .  S
C264        F270   1.385       .  S
O271        V279   1.919   1_564  S
O271        C281   1.269       .  A
O272        C282   1.269       .  A
O273        V279   1.883   1_565  S
O273        C283   1.259       .  A
O274        C284   1.260       .  A
O275        V280   1.914   1_554  S
O275        C284   1.267       .  A
O276        C283   1.269       .  A
O277        V280   1.877       .  S
O277        C282   1.259       .  A
O278        C281   1.260       .  A
C281        C481   1.493       .  S
C282        C529   1.474       .  S
C283        C513   1.477       .  S
C284        C494   1.470       .  S
C285        C462   1.497       .  S
C285        N286   1.364       .  A
C285        N290   1.357       .  A
N286        C287   1.364       .  A
C287        C835   1.483   1_455  S
C287        N288   1.361       .  A
N288        C289   1.363       .  A
C289        C510   1.489       .  S
C289        N290   1.353       .  A
C291        C446   1.490       .  S
C291        N292   1.352       .  A
C291        N296   1.364       .  A
N292        C293   1.355       .  A
C293        C526   1.494       .  S
C293        N294   1.360       .  A
N294        C295   1.361       .  A
C295        C827   1.478       .  S
C295        N296   1.362       .  A
O297        V845   1.919       .  S
O297        C307   1.270       .  A
O298        V305   1.917       .  S
O298        C308   1.271       .  A
O299        V845   1.874       .  S
O299        C309   1.258       .  A
O300        V305   1.880       .  S
O300        C310   1.258       .  A
O301        V306   1.917       .  S
O301        C310   1.271       .  A
O302        V846   1.927       .  S
O302        C309   1.272       .  A
O303        V306   1.884       .  S
O303        C308   1.258       .  A
O304        V846   1.874       .  S
O304        C307   1.259       .  A
V305        O837   1.917   1_455  S
V305        O839   1.877   1_455  S
V305        V306   2.082       .  T
V306        O842   1.923   1_455  S
V306        O844   1.880   1_455  S
C307        C398   1.480       .  S
C308        C430   1.482       .  S
C309        C382   1.483       .  S
C310        C417   1.480       .  S
C311        C401   1.504       .  S
C311        N312   1.358       .  A
C311        N316   1.361       .  A
N312        C313   1.356       .  A
C313        C497   1.490       .  S
C313        N314   1.358       .  A
N314        C315   1.359       .  A
C315        C321   1.475       .  S
C315        N316   1.360       .  A
C317        C478   1.479       .  S
C317        N318   1.354       .  A
C317        N322   1.358       .  A
N318        C319   1.354       .  A
C319        C414   1.500       .  S
C319        N320   1.365       .  A
N320        C321   1.361       .  A
C321        N322   1.358       .  A
O323        V331   1.922       .  S
O323        C333   1.270       .  A
O324        V331   1.917       .  S
O324        C334   1.272       .  A
O325        V331   1.879       .  S
O325        C335   1.257       .  A
O326        V331   1.873       .  S
O326        C336   1.257       .  A
O327        V332   1.918       .  S
O327        C336   1.269       .  A
O328        V332   1.916       .  S
O328        C335   1.269       .  A
O329        V332   1.882       .  S
O329        C334   1.257       .  A
O330        V332   1.879       .  S
O330        C333   1.259       .  A
V331        V332   2.083       .  T
C333        C465   1.482       .  S
C334        C353   1.491       .  S
C335        C366   1.469       .  S
C336        C449   1.471       .  S
C337        C350   1.500       .  S
C337        N338   1.363       .  A
C337        N342   1.359       .  A
N338        C339   1.359       .  A
C339        N340   1.359       .  A
N340        C341   1.360       .  A
C341        C385   1.502       .  S
C341        N342   1.361       .  A
C343        C369   1.491       .  S
C343        N344   1.362       .  A
C343        N348   1.353       .  A
N344        C345   1.364       .  A
C345        N346   1.365       .  A
N346        C347   1.363       .  A
C347        C433   1.495       .  S
C347        N348   1.348       .  A
C349        C350   1.406       .  A
C349        C354   1.407       .  A
C349        H356   1.082       .  S
C350        C351   1.427       .  A
C351        C352   1.408       .  A
C351        C358   1.516       .  S
C352        C353   1.400       .  A
C352        H357   1.082       .  S
C353        C354   1.425       .  A
C354        C355   1.523       .  S
C355        F359   1.385       .  S
C355        F360   1.383       .  S
C355        F361   1.383       .  S
C358        F362   1.382       .  S
C358        F363   1.384       .  S
C358        F364   1.385       .  S
C365        C366   1.403       .  A
C365        C370   1.411       .  A
C365        H372   1.083       .  S
C366        C367   1.408       .  A
C367        C368   1.401       .  A
C367        C374   1.519       .  S
C368        C369   1.410       .  A
C368        H373   1.082       .  S
C369        C370   1.421       .  A
C370        C371   1.518       .  S
C371        F375   1.385       .  S
C371        F376   1.383       .  S
C371        F377   1.383       .  S
C374        F378   1.383       .  S
C374        F379   1.381       .  S
C374        F380   1.385       .  S
C381        C382   1.405       .  A
C381        C386   1.408       .  A
C381        H388   1.084       .  S
C382        C383   1.411       .  A
C383        C384   1.408       .  A
C383        C390   1.518       .  S
C384        C385   1.412       .  A
C384        H389   1.076       .  S
C385        C386   1.425       .  A
C386        C387   1.521       .  S
C387        F391   1.385       .  S
C387        F392   1.383       .  S
C387        F393   1.383       .  S
C390        F394   1.383       .  S
C390        F395   1.379       .  S
C390        F396   1.385       .  S
C397        C398   1.403       .  A
C397        C402   1.407       .  A
C397        H404   1.083       .  S
C398        C399   1.410       .  A
C399        C400   1.408       .  A
C399        C406   1.519       .  S
C400        C401   1.417       .  A
C400        H405   1.081       .  S
C401        C402   1.426       .  A
C402        C403   1.522       .  S
C403        F407   1.385       .  S
C403        F408   1.383       .  S
C403        F409   1.383       .  S
C406        F410   1.383       .  S
C406        F951   1.383       .  S
C406        F412   1.384       .  S
F411        C946   1.383       .  S
C413        C414   1.407       .  A
C413        C418   1.404       .  A
C413        H420   1.082       .  S
C414        C415   1.432       .  A
C415        C416   1.410       .  A
C415        C422   1.523       .  S
C416        C417   1.399       .  A
C416        H421   1.083       .  S
C417        C418   1.417       .  A
C418        C419   1.519       .  S
C419        F423   1.384       .  S
C419        F424   1.383       .  S
C419        F425   1.381       .  S
C422        F426   1.383       .  S
C422        F427   1.383       .  S
C422        F428   1.385       .  S
C429        C430   1.398       .  A
C429        C434   1.407       .  A
C429        H436   1.083       .  S
C430        C431   1.419       .  A
C431        C432   1.408       .  A
C431        C438   1.520       .  S
C432        C433   1.404       .  A
C432        H437   1.081       .  S
C433        C434   1.430       .  A
C434        C435   1.523       .  S
C435        F439   1.385       .  S
C435        F440   1.383       .  S
C435        F441   1.382       .  S
C438        F442   1.381       .  S
C438        F443   1.381       .  S
C438        F444   1.385       .  S
C445        C446   1.404       .  A
C445        C450   1.401       .  A
C445        H452   1.084       .  S
C446        C447   1.430       .  A
C447        C448   1.408       .  A
C447        C454   1.522       .  S
C448        C449   1.397       .  A
C448        H453   1.083       .  S
C449        C450   1.415       .  A
C450        C451   1.517       .  S
C451        F455   1.384       .  S
C451        F456   1.383       .  S
C451        F457   1.383       .  S
C454        F458   1.384       .  S
C454        F459   1.380       .  S
C454        F460   1.385       .  S
C461        C462   1.413       .  A
C461        C466   1.408       .  A
C461        H468   1.082       .  S
C462        C463   1.421       .  A
C463        C464   1.408       .  A
C463        C470   1.519       .  S
C464        C465   1.405       .  A
C464        H469   1.084       .  S
C465        C466   1.413       .  A
C466        C467   1.518       .  S
C467        F471   1.383       .  S
C467        F472   1.380       .  S
C467        F473   1.385       .  S
C470        F474   1.384       .  S
C470        F475   1.382       .  S
C470        F476   1.385       .  S
C477        C478   1.406       .  A
C477        C482   1.411       .  A
C477        H484   1.082       .  S
C478        C479   1.413       .  A
C479        C480   1.400       .  A
C479        C486   1.521       .  S
C480        C481   1.411       .  A
C480        H485   1.082       .  S
C481        C482   1.420       .  A
C482        C483   1.517       .  S
C483        F487   1.385       .  S
C483        F488   1.382       .  S
C483        F489   1.383       .  S
C486        F490   1.379       .  S
C486        F491   1.384       .  S
C486        F492   1.385       .  S
C493        C494   1.400       .  A
C493        C498   1.406       .  A
C493        H500   1.084       .  S
C494        C495   1.411       .  A
C495        C496   1.403       .  A
C495        C502   1.515       .  S
C496        C497   1.409       .  A
C496        H501   1.082       .  S
C497        C498   1.422       .  A
C498        C499   1.516       .  S
C499        F503   1.385       .  S
C499        F504   1.384       .  S
C499        F505   1.382       .  S
C502        F506   1.383       .  S
C502        F507   1.380       .  S
C502        F508   1.385       .  S
C509        C510   1.404       .  A
C509        C514   1.405       .  A
C509        H516   1.083       .  S
C510        C511   1.427       .  A
C511        C512   1.410       .  A
C511        C518   1.521       .  S
C512        C513   1.400       .  A
C512        H517   1.083       .  S
C513        C514   1.415       .  A
C514        C515   1.517       .  S
C515        F519   1.385       .  S
C515        F520   1.381       .  S
C515        F521   1.384       .  S
C518        F522   1.383       .  S
C518        F523   1.382       .  S
C518        F524   1.385   1_565  S
C525        C526   1.412       .  A
C525        C530   1.403       .  A
C525        H532   1.079       .  S
C526        C527   1.422       .  A
C527        C528   1.407       .  A
C527        C534   1.519       .  S
C528        C529   1.404       .  A
C528        H533   1.084       .  S
C529        C530   1.409       .  A
C530        C531   1.517       .  S
C531        F535   1.385       .  S
C531        F536   1.383       .  S
C531        F537   1.378       .  S
C534        F538   1.384       .  S
C534        F539   1.382       .  S
C534        F540   1.385       .  S
O541        V549   1.920       .  S
O541        C551   1.269       .  A
O542        V819   1.918   1_546  S
O542        C552   1.269       .  A
O543        V549   1.885   1_556  S
O543        C553   1.259       .  A
O544        V819   1.883   1_545  S
O544        C554   1.259       .  A
O545        V550   1.912   1_544  S
O545        C554   1.267       .  A
O546        V820   1.916       .  S
O546        C553   1.269       .  A
O547        V550   1.874   1_545  S
O547        C552   1.259       .  A
O548        V820   1.873   1_554  S
O548        C551   1.261       .  A
V549        O812   1.921   1_554  S
V549        O814   1.880       .  S
V549        V820   2.078   1_554  T
V550        O816   1.913       .  S
V550        O818   1.877   1_556  S
V550        V819   2.082   1_556  T
C551        C751   1.493       .  S
C552        C799   1.472       .  S
C553        C783   1.476       .  S
C554        C764   1.468       .  S
C555        C732   1.495       .  S
C555        N556   1.360       .  A
C555        N560   1.356       .  A
N556        C557   1.360       .  A
C557        N558   1.361       .  A
N558        C559   1.362       .  A
C559        C780   1.488       .  S
C559        N560   1.354       .  A
C561        C716   1.490       .  S
C561        N562   1.351       .  A
C561        N566   1.365       .  A
N562        C563   1.353       .  A
C563        C796   1.491       .  S
C563        N564   1.358       .  A
N564        C565   1.360       .  A
C565        N566   1.364       .  A
O567        C577   1.268       .  A
O568        V575   1.914       .  S
O568        C578   1.269       .  A
O569        C579   1.259       .  A
O570        V575   1.878       .  S
O570        C580   1.257       .  A
O571        V576   1.919       .  S
O571        C580   1.272       .  A
O572        C579   1.271       .  A
O573        V576   1.879       .  S
O573        C578   1.257       .  A
O574        C577   1.257       .  A
V575        V576   2.083       .  T
C577        C668   1.470       .  S
C578        C700   1.474       .  S
C579        C652   1.486       .  S
C580        C687   1.490       .  S
C581        C671   1.491       .  S
C581        N582   1.357       .  A
C581        N586   1.359       .  A
N582        C583   1.357       .  A
C583        C767   1.490       .  S
C583        N584   1.359       .  A
N584        C585   1.360       .  A
C585        C591   1.474       .  S
C585        N586   1.357       .  A
C587        C748   1.476       .  S
C587        N588   1.354       .  A
C587        N592   1.355       .  A
N588        C589   1.356       .  A
C589        C684   1.501       .  S
C589        N590   1.366       .  A
N590        C591   1.362       .  A
C591        N592   1.355       .  A
O593        V601   1.926       .  S
O593        C603   1.271       .  A
O594        V601   1.923       .  S
O594        C604   1.273       .  A
O595        V601   1.878       .  S
O595        C605   1.257       .  A
O596        V601   1.875       .  S
O596        C606   1.256       .  A
O597        V602   1.916       .  S
O597        C606   1.270       .  A
O598        V602   1.913       .  S
O598        C605   1.268       .  A
O599        V602   1.876       .  S
O599        C604   1.256       .  A
O600        V602   1.872       .  S
O600        C603   1.258       .  A
V601        V602   2.084       .  T
C603        C735   1.479       .  S
C604        C623   1.493       .  S
C605        C636   1.468       .  S
C606        C719   1.471       .  S
C607        C620   1.510       .  S
C607        N608   1.367       .  A
C607        N612   1.360       .  A
N608        C609   1.360       .  A
C609        C885   1.481   1_545  S
C609        N610   1.356       .  A
N610        C611   1.357       .  A
C611        C655   1.509       .  S
C611        N612   1.363       .  A
C613        C639   1.495       .  S
C613        N614   1.361       .  A
C613        N618   1.353       .  A
N614        C615   1.364       .  A
C615        C879   1.476       .  S
C615        N616   1.364       .  A
N616        C617   1.362       .  A
C617        C703   1.487       .  S
C617        N618   1.347       .  A
C619        C620   1.408       .  A
C619        C624   1.407       .  A
C619        H626   1.082       .  S
C620        C621   1.432       .  A
C621        C622   1.410       .  A
C621        C628   1.517       .  S
C622        C623   1.399       .  A
C622        H627   1.082       .  S
C623        C624   1.424       .  A
C624        C625   1.523       .  S
C625        F629   1.385       .  S
C625        F630   1.383       .  S
C625        F631   1.383       .  S
C628        F632   1.382       .  S
C628        F633   1.383       .  S
C628        F634   1.385       .  S
C635        C636   1.404       .  A
C635        C640   1.411       .  A
C635        H642   1.083       .  S
C636        C637   1.406       .  A
C637        C638   1.399       .  A
C637        C644   1.519       .  S
C638        C639   1.413       .  A
C638        H643   1.080       .  S
C639        C640   1.423       .  A
C640        C641   1.520       .  S
C641        F645   1.385       .  S
C641        F646   1.383       .  S
C641        F647   1.383       .  S
C644        F648   1.383       .  S
C644        F649   1.381       .  S
C644        F650   1.385       .  S
C651        C652   1.404       .  A
C651        C656   1.409       .  A
C651        H658   1.084       .  S
C652        C653   1.411       .  A
C653        C654   1.408       .  A
C653        C660   1.519       .  S
C654        C655   1.413       .  A
C654        H659   1.077       .  S
C655        C656   1.429       .  A
C656        C657   1.523       .  S
C657        F661   1.385       .  S
C657        F662   1.383       .  S
C657        F663   1.383   1_545  S
C660        F664   1.383       .  S
C660        F665   1.381       .  S
C660        F666   1.385       .  S
C667        C668   1.401       .  A
C667        C672   1.405       .  A
C667        H674   1.084       .  S
C668        C669   1.411       .  A
C669        C670   1.406       .  A
C669        C676   1.518       .  S
C670        C671   1.412       .  A
C670        H675   1.082       .  S
C671        C672   1.423       .  A
C672        C673   1.520       .  S
C673        F677   1.385       .  S
C673        F678   1.383       .  S
C673        F679   1.383       .  S
C676        F680   1.383       .  S
C676        F682   1.384       .  S
C683        C684   1.406       .  A
C683        C688   1.405       .  A
C683        H690   1.082       .  S
C684        C685   1.430       .  A
C685        C686   1.410       .  A
C685        C692   1.521       .  S
C686        C687   1.401       .  A
C686        H691   1.083       .  S
C687        C688   1.422       .  A
C688        C689   1.521       .  S
C689        F693   1.385       .  S
C689        F694   1.383       .  S
C689        F695   1.384       .  S
C692        F696   1.383       .  S
C692        F697   1.384       .  S
C692        F698   1.385       .  S
C699        C700   1.396       .  A
C699        C704   1.404       .  A
C699        H706   1.083       .  S
C700        C701   1.417       .  A
C701        C702   1.406       .  A
C701        C708   1.519       .  S
C702        C703   1.404       .  A
C702        H707   1.083       .  S
C703        C704   1.428       .  A
C704        C705   1.523       .  S
C705        F709   1.385       .  S
C705        F710   1.384       .  S
C705        F711   1.381       .  S
C708        F712   1.382       .  S
C708        F713   1.383       .  S
C708        F714   1.385       .  S
C715        C716   1.406       .  A
C715        C720   1.407       .  A
C715        H722   1.083       .  S
C716        C717   1.430       .  A
C717        C718   1.404       .  A
C717        C724   1.523       .  S
C718        C719   1.394       .  A
C718        H723   1.084       .  S
C719        C720   1.415       .  A
C720        C721   1.518       .  S
C721        F725   1.385       .  S
C721        F726   1.382       .  S
C721        F727   1.383       .  S
C724        F728   1.384       .  S
C724        F729   1.380       .  S
C724        F730   1.385       .  S
C731        C732   1.413       .  A
C731        C736   1.408       .  A
C731        H738   1.081       .  S
C732        C733   1.422       .  A
C733        C734   1.406       .  A
C733        C740   1.521       .  S
C734        C735   1.405       .  A
C734        H739   1.084       .  S
C735        C736   1.411       .  A
C736        C737   1.517       .  S
C737        F741   1.382       .  S
C737        F742   1.379       .  S
C737        F743   1.385       .  S
C740        F744   1.384       .  S
C740        F745   1.383       .  S
C740        F746   1.385       .  S
C747        C748   1.406       .  A
C747        C752   1.413       .  A
C747        H754   1.083       .  S
C748        C749   1.413       .  A
C749        C750   1.397       .  A
C749        C756   1.523       .  S
C750        C751   1.409       .  A
C750        H755   1.081       .  S
C751        C752   1.421       .  A
C752        C753   1.517       .  S
C753        F757   1.385       .  S
C753        F758   1.383       .  S
C753        F759   1.383       .  S
C756        F760   1.379       .  S
C756        F761   1.384       .  S
C756        F762   1.385       .  S
C763        C764   1.399       .  A
C763        C768   1.406       .  A
C763        H770   1.084       .  S
C764        C765   1.410       .  A
C765        C766   1.404       .  A
C765        C772   1.517       .  S
C766        C767   1.409       .  A
C766        H771   1.082       .  S
C767        C768   1.422       .  A
C768        C769   1.516       .  S
C769        F773   1.385       .  S
C769        F774   1.383       .  S
C769        F775   1.382       .  S
C772        F776   1.383       .  S
C772        F777   1.382   1_545  S
C772        F778   1.384       .  S
C779        C780   1.406       .  A
C779        C784   1.407       .  A
C779        H786   1.083       .  S
C780        C781   1.425       .  A
C781        C782   1.407       .  A
C781        C788   1.522       .  S
C782        C783   1.398       .  A
C782        H787   1.083       .  S
C783        C784   1.416       .  A
C784        C785   1.519       .  S
C785        F789   1.385       .  S
C785        F790   1.382       .  S
C785        F791   1.384       .  S
C788        F792   1.384       .  S
C788        F793   1.382       .  S
C788        F794   1.385       .  S
C795        C796   1.412       .  A
C795        C800   1.403       .  A
C795        H802   1.079       .  S
C796        C797   1.420       .  A
C797        C798   1.405       .  A
C797        C804   1.518       .  S
C798        C799   1.404       .  A
C798        H803   1.084       .  S
C799        C800   1.409       .  A
C800        C801   1.517       .  S
C801        F805   1.385       .  S
C801        F806   1.383       .  S
C801        F807   1.378       .  S
C804        F808   1.384       .  S
C804        F809   1.382       .  S
C804        F810   1.385       .  S
O811        V819   1.916       .  S
O811        C821   1.269       .  A
O812        C822   1.271       .  A
O813        V819   1.887   1_556  S
O813        C823   1.260       .  A
O814        C824   1.259       .  A
O815        V820   1.919   1_554  S
O815        C824   1.268       .  A
O816        C823   1.268       .  A
O817        V820   1.881       .  S
O817        C822   1.260       .  A
O818        C821   1.261       .  A
C821       C1021   1.490       .  S
C822       C1069   1.484       .  S
C823       C1053   1.479       .  S
C824       C1034   1.472       .  S
C825       C1002   1.498       .  S
C825        N826   1.363       .  A
C825        N830   1.356       .  A
N826        C827   1.364       .  A
C827        N828   1.362       .  A
N828        C829   1.360       .  A
C829       C1050   1.487       .  S
C829        N830   1.350       .  A
C831        C986   1.510       .  S
C831        N832   1.358       .  A
C831        N836   1.366       .  A
N832        C833   1.361       .  A
C833       C1066   1.506       .  S
C833        N834   1.361       .  A
N834        C835   1.361       .  A
C835        N836   1.361       .  A
O837        C847   1.269       .  A
O838        V845   1.917       .  S
O838        C848   1.271       .  A
O839        C849   1.259       .  A
O840        V845   1.876       .  S
O840        C850   1.256       .  A
O841        V846   1.924       .  S
O841        C850   1.272       .  A
O842        C849   1.270       .  A
O843        V846   1.878       .  S
O843        C848   1.257       .  A
O844        C847   1.260       .  A
V845        V846   2.081       .  T
C847        C938   1.480       .  S
C848        C970   1.474       .  S
C849        C922   1.478       .  S
C850        C957   1.485       .  S
C851        C941   1.504       .  S
C851        N852   1.358       .  A
C851        N856   1.360       .  A
N852        C853   1.355       .  A
C853       C1037   1.489       .  S
C853        N854   1.361       .  A
N854        C855   1.361       .  A
C855        C861   1.479       .  S
C855        N856   1.360       .  A
C857       C1018   1.480       .  S
C857        N858   1.355       .  A
C857        N862   1.359       .  A
N858        C859   1.354       .  A
C859        C954   1.507       .  S
C859        N860   1.366       .  A
N860        C861   1.362       .  A
C861        N862   1.359       .  A
O863        V871   1.911       .  S
O863        C873   1.268       .  A
O864        V871   1.914       .  S
O864        C874   1.269       .  A
O865        V871   1.871       .  S
O865        C875   1.258       .  A
O866        V871   1.881       .  S
O866        C876   1.257       .  A
O867        V872   1.920       .  S
O867        C876   1.272       .  A
O868        V872   1.920       .  S
O868        C875   1.269       .  A
O869        V872   1.888       .  S
O869        C874   1.259       .  A
O870        V872   1.887       .  S
O870        C873   1.259       .  A
V871        V872   2.084       .  T
C873       C1005   1.472       .  S
C874        C893   1.478       .  S
C875        C906   1.472       .  S
C876        C989   1.490       .  S
C877        C890   1.491       .  S
C877        N878   1.363       .  A
C877        N882   1.357       .  A
N878        C879   1.360       .  A
C879        N880   1.359       .  A
N880        C881   1.360       .  A
C881        C925   1.494       .  S
C881        N882   1.357       .  A
C883        C909   1.493       .  S
C883        N884   1.363       .  A
C883        N888   1.356       .  A
N884        C885   1.361       .  A
C885        N886   1.362       .  A
N886        C887   1.362       .  A
C887        C973   1.493       .  S
C887        N888   1.351       .  A
C889        C890   1.407       .  A
C889        C894   1.407       .  A
C889        H896   1.083       .  S
C890        C891   1.425       .  A
C891        C892   1.407       .  A
C891        C898   1.522       .  S
C892        C893   1.399       .  A
C892        H897   1.083       .  S
C893        C894   1.417       .  A
C894        C895   1.518       .  S
C895        F899   1.385       .  S
C895        F900   1.382       .  S
C895        F901   1.382       .  S
C898        F902   1.384       .  S
C898        F903   1.382       .  S
C898        F904   1.385       .  S
C905        C906   1.404       .  A
C905        C910   1.405       .  A
C905        H912   1.084       .  S
C906        C907   1.408       .  A
C907        C908   1.405       .  A
C907        C914   1.518       .  S
C908        C909   1.414       .  A
C908        H913   1.079       .  S
C909        C910   1.420       .  A
C910        C911   1.519       .  S
C911        F915   1.385       .  S
C911        F916   1.384       .  S
C911        F917   1.383       .  S
C914        F918   1.383       .  S
C914        F919   1.379       .  S
C914        F920   1.385       .  S
C921        C922   1.403       .  A
C921        C926   1.405       .  A
C921        H928   1.084       .  S
C922        C923   1.412       .  A
C923        C924   1.410       .  A
C923        C930   1.516       .  S
C924        C925   1.412       .  A
C924        H929   1.082       .  S
C925        C926   1.421       .  A
C926        C927   1.519       .  S
C927        F931   1.385       .  S
C927        F932   1.384       .  S
C927        F933   1.382       .  S
C930        F934   1.383       .  S
C930        F935   1.380   1_655  S
C930        F936   1.384       .  S
C937        C938   1.403       .  A
C937        C942   1.408       .  A
C937        H944   1.083       .  S
C938        C939   1.411       .  A
C939        C940   1.407       .  A
C939        C946   1.519       .  S
C940        C941   1.416       .  A
C940        H945   1.081       .  S
C941        C942   1.427       .  A
C942        C943   1.522       .  S
C943        F947   1.385       .  S
C943        F948   1.383       .  S
C943        F949   1.383       .  S
C946        F950   1.382       .  S
C946        F952   1.385       .  S
C953        C954   1.408       .  A
C953        C958   1.404       .  A
C953        H960   1.081       .  S
C954        C955   1.435       .  A
C955        C956   1.412       .  A
C955        C962   1.523       .  S
C956        C957   1.399       .  A
C956        H961   1.083       .  S
C957        C958   1.419       .  A
C958        C959   1.522       .  S
C959        F963   1.384       .  S
C959        F964   1.383       .  S
C959        F965   1.382       .  S
C962        F966   1.383       .  S
C962        F967   1.383       .  S
C962        F968   1.385       .  S
C969        C970   1.398       .  A
C969        C974   1.407       .  A
C969        H976   1.084       .  S
C970        C971   1.418       .  A
C971        C972   1.403       .  A
C971        C978   1.518       .  S
C972        C973   1.405       .  A
C972        H977   1.084       .  S
C973        C974   1.428       .  A
C974        C975   1.523       .  S
C975        F979   1.385       .  S
C975        F980   1.384       .  S
C975        F981   1.380       .  S
C978        F982   1.383       .  S
C978        F983   1.381       .  S
C978        F984   1.384       .  S
C985        C986   1.409       .  A
C985        C990   1.407       .  A
C985        H992   1.082       .  S
C986        C987   1.433       .  A
C987        C988   1.410       .  A
C987        C994   1.518       .  S
C988        C989   1.398       .  A
C988        H993   1.083       .  S
C989        C990   1.421       .  A
C990        C991   1.522       .  S
C991        F995   1.385       .  S
C991        F996   1.383       .  S
C991        F997   1.382       .  S
C994        F998   1.383       .  S
C994        F999   1.383       .  S
C994       F1000   1.385       .  S
C1001      C1002   1.413       .  A
C1001      C1006   1.401       .  A
C1001      H1008   1.081       .  S
C1002      C1003   1.424       .  A
C1003      C1004   1.412       .  A
C1003      C1010   1.520       .  S
C1004      C1005   1.404       .  A
C1004      H1009   1.084       .  S
C1005      C1006   1.407       .  A
C1006      C1007   1.519       .  S
C1007      F1011   1.383       .  S
C1007      F1012   1.382       .  S
C1007      F1013   1.384       .  S
C1010      F1014   1.384       .  S
C1010      F1015   1.382       .  S
C1010      F1016   1.385       .  S
C1017      C1018   1.407       .  A
C1017      C1022   1.411       .  A
C1017      H1024   1.082       .  S
C1018      C1019   1.414       .  A
C1019      C1020   1.401       .  A
C1019      C1026   1.521       .  S
C1020      C1021   1.409       .  A
C1020      H1025   1.082       .  S
C1021      C1022   1.419       .  A
C1022      C1023   1.517       .  S
C1023      F1027   1.385       .  S
C1023      F1028   1.382       .  S
C1023      F1029   1.383       .  S
C1026      F1030   1.378       .  S
C1026      F1031   1.383       .  S
C1026      F1032   1.385       .  S
C1033      C1034   1.400       .  A
C1033      C1038   1.405       .  A
C1033      H1040   1.084       .  S
C1034      C1035   1.413       .  A
C1035      C1036   1.407       .  A
C1035      C1042   1.516       .  S
C1036      C1037   1.409       .  A
C1036      H1041   1.083       .  S
C1037      C1038   1.419       .  A
C1038      C1039   1.514       .  S
C1039      F1043   1.385       .  S
C1039      F1044   1.384       .  S
C1039      F1045   1.382       .  S
C1042      F1046   1.383       .  S
C1042      F1047   1.379       .  S
C1042      F1048   1.385       .  S
C1049      C1050   1.404       .  A
C1049      C1054   1.406       .  A
C1049      H1056   1.082       .  S
C1050      C1051   1.425       .  A
C1051      C1052   1.407       .  A
C1051      C1058   1.522       .  S
C1052      C1053   1.400       .  A
C1052      H1057   1.083       .  S
C1053      C1054   1.416       .  A
C1054      C1055   1.518       .  S
C1055      F1059   1.385       .  S
C1055      F1060   1.382       .  S
C1055      F1061   1.384       .  S
C1058      F1062   1.384       .  S
C1058      F1063   1.382       .  S
C1058      F1064   1.385       .  S
C1065      C1066   1.412       .  A
C1065      C1070   1.407       .  A
C1065      H1072   1.072       .  S
C1066      C1067   1.424       .  A
C1067      C1068   1.410       .  A
C1067      C1074   1.520       .  S
C1068      C1069   1.406       .  A
C1068      H1073   1.083       .  S
C1069      C1070   1.411       .  A
C1070      C1071   1.519       .  S
C1071      F1075   1.385       .  S
C1071      F1076   1.383       .  S
C1071      F1077   1.380       .  S
C1074      F1078   1.384       .  S
C1074      F1079   1.382       .  S
C1074      F1080   1.385       .  S
