geometry optimzed in LAMMPS
_audit_creation_date              2020-12-01 
_audit_creation_method            'lammps2cif' 
_symmetry_space_group_name_H-M    'P1' 
_symmetry_Int_Tables_number       1 
_symmetry_cell_setting            triclinic 
loop_ 
_symmetry_equiv_pos_as_xyz 
  x,y,z 
_cell_length_a                    45.7057516 
_cell_length_b                    44.68147850656303 
_cell_length_c                    33.028145651667685 
_cell_angle_alpha                 90.01377804308628 
_cell_angle_beta                  89.05942284968152 
_cell_angle_gamma                 122.19888785013097 
loop_ 
_atom_site_label 
_atom_site_type_symbol 
_atom_site_fract_x 
_atom_site_fract_y 
_atom_site_fract_z 
_atom_site_charge 
C1          C  0.01755968  0.47918696  0.12679504     0.02800
C2          C  0.03833480  0.01612003  0.12845821    -0.13300
C3          C  0.02377198  0.03636813  0.12304199     0.00300
C4          C  0.48849159  0.01978119  0.11497181    -0.11900
C5          C  0.46723977  0.48282415  0.11422992     0.02800
C6          C  0.48188800  0.46239393  0.12037193    -0.11300
H7          H  0.06583393  0.02907608  0.13373844     0.08400
H8          H  0.47715875  0.03566117  0.11170802     0.05900
H9          H  0.46552501  0.43379146  0.12173822     0.05800
C10         C  0.20251896  0.35585410  0.15380562     0.02800
C11         C  0.18082407  0.31870051  0.15680632    -0.13300
C12         C  0.14497519  0.30192538  0.15221461     0.00300
C13         C  0.13063202  0.32209883  0.14626223    -0.11900
C14         C  0.15198795  0.35889128  0.14454303     0.02800
C15         C  0.18771796  0.37590081  0.14865427    -0.11300
H16         H  0.19202098  0.30267863  0.15971772     0.08400
H17         H  0.10298788  0.30916527  0.14202466     0.05900
H18         H  0.20399798  0.40439338  0.14503762     0.05800
C19         C  0.39338534  0.33239100  0.49862913     0.02800
C20         C  0.38479956  0.30063180  0.01810723    -0.13300
C21         C  0.36243606  0.28818946  0.05185936     0.00300
C22         C  0.34851180  0.30793218  0.06593549    -0.11900
C23         C  0.35785158  0.34017958  0.04728852     0.02800
C24         C  0.38057056  0.35252655  0.01395312    -0.11300
H25         H  0.39503530  0.28524237  0.00650604     0.08400
H26         H  0.33115180  0.29878298  0.09209280     0.05900
H27         H  0.38764733  0.37736553  0.49953876     0.05800
O28         O  0.03352586  0.44765188  0.16840145    -0.81200
O29         O  0.10893634  0.37071741  0.15452147    -0.65900
O30         O  0.09198781  0.44417359  0.15353776    -1.12500
C31         C  0.07176224  0.40339126  0.02515920     1.05700
O32         O  0.15148899  0.40462847  0.11006592    -0.79100
O33         O  0.15383173  0.46472677  0.08057225    -0.66700
Ni34       Ni  0.07093090  0.45102315  0.19908229     1.34900
C35         C  0.14199178  0.48425271  0.07268868     0.84400
O36         O  0.11239392  0.41113868  0.21371917    -0.79700
O37         O  0.10817531  0.45649054  0.23188214    -0.89900
C38         C  0.13663615  0.37897258  0.13569656     0.84000
O39         O  0.04099172  0.40253204  0.21509020    -0.68100
O40         O  0.10452855  0.42250889  0.02706540    -0.87400
C41         C  0.03053829  0.37410526  0.19564909     0.84800
C42         C  0.12157798  0.43775117  0.23567425     1.06400
H43         H  0.07192407  0.37652985  0.09783079     0.38200
O44         O  0.08964512  0.40091375  0.10299729    -1.10100
O45         O  0.10963287  0.47168235  0.07505448    -0.66700
Ni46       Ni  0.07105695  0.42935351  0.10116210     1.26300
O47         O  0.05042453  0.37142822  0.17003697    -0.67000
O48         O  0.05281076  0.40947795  0.04875093    -0.79200
C49         C  0.03410585  0.45926740  0.13288806     0.84200
O50         O  0.05016831  0.45635220  0.10290495    -0.66400
Ni51       Ni  0.12823051  0.41455712  0.06862982     1.27400
Ni52       Ni  0.09960628  0.40621752  0.15768212     1.26100
H53         H  0.11435750  0.46574486  0.15018681     0.38700
C54         C  0.17828014  0.07140911  0.01211832     0.02800
C55         C  0.15569320  0.03609709  0.02620302    -0.13300
C56         C  0.16560298  0.02186376  0.05848634     0.00300
C57         C  0.19767101  0.04410385  0.07771060    -0.11900
C58         C  0.21977217  0.07927484  0.06433969     0.02800
C59         C  0.21050851  0.09099378  0.03029139    -0.11300
H60         H  0.13091925  0.01966839  0.01199819     0.08400
H61         H  0.20454968  0.03455579  0.10376263     0.05900
H62         H  0.22904410  0.11715725  0.01833737     0.05800
C63         C  0.49351797  0.34454685  0.20386759     0.02800
C64         C  0.47385371  0.35038631  0.23299878    -0.13300
C65         C  0.43857731  0.32544041  0.24065346     0.00300
C66         C  0.42276877  0.29374359  0.21898006    -0.11900
C67         C  0.44126353  0.28646363  0.19057311     0.02800
C68         C  0.47667672  0.31212259  0.18246415    -0.11300
H69         H  0.48607908  0.37459869  0.25021913     0.08400
H70         H  0.39578339  0.27376560  0.22498377     0.05900
H71         H  0.49084697  0.30683466  0.16001343     0.05800
O72         O  0.36433242  0.12552079  0.16666023    -0.81200
O73         O  0.37206541  0.24202235  0.07054531    -0.65900
O74         O  0.35300271  0.17853679  0.15851587    -1.12500
C75         C  0.25061543  0.10754742  0.08610159     1.05700
O76         O  0.32335454  0.23718780  0.09035114    -0.79100
O77         O  0.27666011  0.18706042  0.14149966    -0.66700
Ni78       Ni  0.38917700  0.17457974  0.17926595     1.34900
C79         C  0.26606449  0.16244589  0.16749737     0.84400
O80         O  0.40836905  0.24846919  0.13684259    -0.79700
O81         O  0.41503609  0.22417013  0.19261050    -0.89900
C82         C  0.35220310  0.25398995  0.07130919     0.84000
O83         O  0.41692216  0.18305515  0.13130683    -0.68100
O84         O  0.25494609  0.13817702  0.08172906    -0.87400
C85         C  0.41181219  0.18457029  0.09385074     0.84800
C86         C  0.42171952  0.25110404  0.17139072     1.06400
H87         H  0.32599531  0.16591575  0.06845554     0.38200
O88         O  0.32228222  0.17377888  0.09419284    -1.10100
O89         O  0.27916364  0.14328712  0.16913674    -0.66700
Ni90       Ni  0.31227459  0.13870175  0.13440068     1.26300
O91         O  0.38965375  0.19198114  0.08209831    -0.67000
O92         O  0.27167964  0.10216109  0.10564256    -0.79200
C93         C  0.33508507  0.10362593  0.18266402     0.84200
O94         O  0.30852520  0.10489918  0.17435186    -0.66400
Ni95       Ni  0.28998561  0.18708277  0.08668516     1.27400
Ni96       Ni  0.36544796  0.21054432  0.11411837     1.26100
H97         H  0.34513504  0.18704221  0.18040580     0.38700
O98         O  0.24715245  0.35261430  0.12562768    -0.81200
O99         O  0.40877134  0.45633997  0.09150579    -0.65900
O100        O  0.31604865  0.39359123  0.12909316    -1.12500
C101        C  0.33512029  0.49572627  0.19206429     1.05700
O102        O  0.41942695  0.46434362  0.15666203    -0.79100
O103        O  0.36737213  0.43970061  0.21084501    -0.66700
Ni104      Ni  0.28414905  0.35795798  0.09340558     1.34900
C105        C  0.33579994  0.42254435  0.22170788     0.84400
O106        O  0.36638276  0.38715117  0.08740740    -0.79700
O107        O  0.31647845  0.35602359  0.05721885    -0.89900
C108        C  0.43001686  0.46704708  0.12037286     0.84000
O109        O  0.28577350  0.39403937  0.06202311    -0.68100
O110        O  0.36326168  0.99710658  0.19826464    -0.87400
C111        C  0.31236997  0.42176577  0.04742142     0.84800
C112        C  0.34615321  0.36222266  0.06488463     1.06400
H113        H  0.36367653  0.47842752  0.11361644     0.38200
O114        O  0.35884659  0.46007290  0.13302668    -1.10100
O115        O  0.31246613  0.42146836  0.20080706    -0.66700
Ni116      Ni  0.31089789  0.43281896  0.14571709     1.26300
O117        O  0.34366400  0.43245116  0.05816785    -0.67000
O118        O  0.31210935  0.47427887  0.16680437    -0.79200
C119        C  0.23955632  0.37211703  0.14491376     0.84200
O120        O  0.26133786  0.40446603  0.15344750    -0.66400
Ni121      Ni  0.38995197  0.47993432  0.17610012     1.27400
Ni122      Ni  0.36174019  0.42395373  0.10832930     1.26100
H123        H  0.31732900  0.38154376  0.15262769     0.38700
C124        C  0.36664749  0.06977118  0.26398484     0.02800
C125        C  0.35254783  0.03495935  0.25131920    -0.13300
C126        C  0.33253102  0.02240243  0.21559613     0.00300
C127        C  0.32192494  0.04305409  0.19662356    -0.11900
C128        C  0.33389730  0.07727434  0.21053439     0.02800
C129        C  0.35598748  0.09024054  0.24402374    -0.11300
H130        H  0.36137523  0.01939791  0.26564162     0.08400
H131        H  0.30907503  0.03486963  0.16778231     0.05900
H132        H  0.36716716  0.11767079  0.25234839     0.05800
C133        C  0.19237976  0.12381110  0.24883215     0.02800
C134        C  0.22469826  0.13455293  0.22964520    -0.13300
C135        C  0.23466619  0.15413418  0.19273611     0.00300
C136        C  0.21189991  0.16330478  0.17633338    -0.11900
C137        C  0.17939548  0.15167397  0.19424019     0.02800
C138        C  0.16992552  0.13186237  0.23007947    -0.11300
H139        H  0.24145012  0.12702876  0.24277244     0.08400
H140        H  0.21872471  0.17838331  0.14832023     0.05900
H141        H  0.14519244  0.12373775  0.24432126     0.05800
O142        O  0.12471675  0.24635313  0.18113616    -0.81200
O143        O  0.05666742  0.09253586  0.15521396    -0.65900
O144        O  0.11478142  0.19158102  0.13556148    -1.12500
C145        C  0.01513346  0.17469176  0.07496092     1.05700
O146        O  0.05157159  0.09070586  0.08883000    -0.79100
O147        O  0.07288723  0.14812787  0.04229428    -0.66700
Ni148      Ni  0.14674029  0.22062214  0.17504649     1.34900
C149        C  0.09149576  0.18142398  0.03748310     0.84400
O150        O  0.12374777  0.14013130  0.17532159    -0.79700
O151        O  0.16990826  0.19553015  0.17018755    -0.89900
C152        C  0.04531428  0.07491743  0.12271482     0.84000
O153        O  0.12077029  0.19200519  0.22085411    -0.68100
O154        O  0.01475752  0.14722879  0.06309520    -0.87400
C155        C  0.08804206  0.17403523  0.22458625     0.84800
C156        C  0.15641228  0.16280068  0.17805967     1.06400
H157        H  0.03269834  0.13883279  0.14181840     0.38200
O158        O  0.05199417  0.14646553  0.12318763    -1.10100
O159        O  0.09258883  0.20277857  0.06358709    -0.66700
Ni160      Ni  0.07687502  0.19658806  0.11948142     1.26300
O161        O  0.06975927  0.15092110  0.19852031    -0.67000
O162        O  0.03660561  0.19660568  0.10094702    -0.79200
C163        C  0.12315171  0.26340425  0.15163635     0.84200
O164        O  0.10406268  0.24734630  0.12153448    -0.66400
Ni165      Ni  0.03382957  0.11983793  0.07648145     1.27400
Ni166      Ni  0.08705860  0.14256051  0.14843827     1.26100
H167        H  0.12837178  0.19391567  0.11170474     0.38700
C168        C  0.43401563  0.17792124  0.06486573     0.02800
C169        C  0.46734600  0.18755566  0.07827106    -0.13300
C170        C  0.48784665  0.17830620  0.05620723     0.00300
C171        C  0.47630526  0.16160451  0.01879695    -0.11900
C172        C  0.44230380  0.14682299  0.50709343     0.02800
C173        C  0.42125062  0.15646702  0.02930880    -0.11300
H174        H  0.47633421  0.19997606  0.10742923     0.08400
H175        H  0.99273486  0.15550845  0.00125328     0.05900
H176        H  0.39466141  0.14546965  0.02081555     0.05800
C177        C  0.48486456  0.03387127  0.37434175     0.02800
C178        C  0.46597134  0.49758457  0.36473584    -0.13300
C179        C  0.48292111  0.47919483  0.35940702     0.00300
C180        C  0.01886685  0.49752261  0.36312736    -0.11900
C181        C  0.03787366  0.03329609  0.37368656     0.02800
C182        C  0.02086165  0.05151755  0.37941401    -0.11300
H183        H  0.43799115  0.48326200  0.36386054     0.08400
H184        H  0.03201056  0.48333327  0.35992957     0.05900
H185        H  0.03560248  0.07938478  0.38678332     0.05800
O186        O  0.09114666  0.05644951  0.33998474    -0.81200
O187        O  0.24537211  0.11839256  0.36873270    -0.65900
O188        O  0.14780586  0.06006590  0.37372211    -1.12500
C189        C  0.15831179  0.16141487  0.43625963     1.05700
O190        O  0.24719355  0.13707697  0.43120131    -0.79100
O191        O  0.19195596  0.12387575  0.47642662    -0.66700
Ni192      Ni  0.12221979  0.04106914  0.32677154     1.34900
C193        C  0.17204443  0.09022528  0.47811759     0.84400
O194        O  0.20003183  0.04990926  0.34912074    -0.79700
O195        O  0.15138363  0.02391134  0.31228417    -0.89900
C196        C  0.26216157  0.13625749  0.39906527     0.84000
O197        O  0.14759522  0.08113561  0.29182459    -0.68100
O198        O  0.19078458  0.17602773  0.43240178    -0.87400
C199        C  0.17992560  0.10232527  0.28702477     0.84800
C200        C  0.17921015  0.02651719  0.32431473     1.06400
H201        H  0.19158725  0.13926077  0.36741425     0.38200
O202        O  0.18963575  0.12429634  0.38974216    -1.10100
O203        O  0.14922892  0.07376618  0.45124437    -0.66700
Ni204      Ni  0.14162161  0.09330967  0.40198784     1.26300
O205        O  0.20123414  0.10567858  0.31365856    -0.67000
O206        O  0.13682240  0.12828973  0.43103612    -0.79200
C207        C  0.07571815  0.05142277  0.37403099     0.84200
O208        O  0.09257026  0.06096521  0.40689535    -0.66400
Ni209      Ni  0.21758105  0.15491760  0.43137423     1.27400
Ni210      Ni  0.19665866  0.08841170  0.36912145     1.26100
H211        H  0.14173533  0.04020403  0.39128850     0.38700
C212        C  0.11360659  0.19495890  0.00059545     0.02800
C213        C  0.12447448  0.17349261  0.48428003    -0.13300
C214        C  0.14557707  0.18379926  0.45004681     0.00300
C215        C  0.15630269  0.21630339  0.43133851    -0.11900
C216        C  0.14476816  0.23823197  0.44572983     0.02800
C217        C  0.12332751  0.22736312  0.48099032    -0.11300
H218        H  0.11745238  0.14883773  0.49919593     0.06800
H219        H  0.17266132  0.22373753  0.40439879     0.05900
H220        H  0.11399785  0.24351270  0.49264051     0.05800
C221        C  0.07234812  0.18297760  0.25870841     0.02800
C222        C  0.03713928  0.16293862  0.27078184    -0.13300
C223        C  0.02461760  0.17581608  0.30149780     0.00300
C224        C  0.04744457  0.20829659  0.32018217    -0.11900
C225        C  0.08238822  0.22732610  0.30928673     0.02800
C226        C  0.09407928  0.21507386  0.27800169    -0.11300
H227        H  0.01966461  0.13798091  0.25631388     0.08400
H228        H  0.03844499  0.21759752  0.34482464     0.05900
H229        H  0.12104469  0.23118785  0.26866096     0.05800
O230        O  0.46655071  0.06475006  0.41649900    -0.81200
O231        O  0.36324541  0.11239168  0.40793346    -0.65900
O232        O  0.40570469  0.06050571  0.39956792    -1.12500
C233        C  0.48854180  0.15518943  0.31675094     1.05700
O234        O  0.37765841  0.13241165  0.34474313    -0.79100
O235        O  0.41428122  0.12062515  0.29213704    -0.66700
Ni236      Ni  0.42479015  0.05484817  0.44642299     1.34900
C237        C  0.39560216  0.08717120  0.29380956     0.84400
O238        O  0.34698679  0.04682110  0.43468518    -0.79700
O239        O  0.38233670  0.04084137  0.47605987    -0.89900
C240        C  0.36417210  0.13121093  0.37886755     0.84000
O241        O  0.44591424  0.10333196  0.46604953    -0.68100
O242        O  0.47397278  0.17179256  0.32693385    -0.87400
C243        C  0.42942909  0.11850871  0.47493877     0.84800
C244        C  0.35209777  0.03004621  0.46252714     1.06400
H245        H  0.44223547  0.13801139  0.39664276     0.38200
O246        O  0.42557943  0.12240267  0.37721173    -1.10100
O247        O  0.40194756  0.06986798  0.31963264    -0.66700
Ni248      Ni  0.43873597  0.09057910  0.36040357     1.26300
O249        O  0.40175317  0.10942155  0.45717370    -0.67000
O250        O  0.47356723  0.12174825  0.32078797    -0.79200
C251        C  0.46651105  0.05251922  0.38113407     0.84200
O252        O  0.45138747  0.05689855  0.35161064    -0.66400
Ni253      Ni  0.42560027  0.15188948  0.33652316     1.27400
Ni254      Ni  0.38438052  0.08615919  0.40579499     1.26100
H255        H  0.38983731  0.03760166  0.38805192     0.38700
C256        C  0.01111267  0.33410066  0.45385971     0.02800
C257        C  0.02212455  0.35348259  0.48990126    -0.13300
C258        C  0.05680858  0.37191443  0.99905624     0.00300
C259        C  0.07806735  0.36192980  0.48040061    -0.11900
C260        C  0.06607005  0.33785678  0.44824008     0.02800
C261        C  0.03257906  0.32477654  0.43380607    -0.11300
H262        H  0.00554258  0.36054268  0.00540170     0.08400
H263        H  0.10507683  0.37518393  0.98846257     0.05900
H264        H  0.02532840  0.31190445  0.40466197     0.05800
O265        O  0.23362240  0.33070841  0.35196750    -0.81200
O266        O  0.09500398  0.31109789  0.41739084    -0.65900
O267        O  0.17211644  0.32973022  0.34972915    -1.12500
C268        C  0.23436279  0.42247730  0.44365353     1.05700
O269        O  0.11700409  0.36811398  0.40989945    -0.79100
O270        O  0.17863582  0.42458020  0.39160786    -0.66700
Ni271      Ni  0.18537314  0.29684227  0.34305786     1.34900
C272        C  0.18241749  0.41985603  0.35451189     0.84400
O273        O  0.10197610  0.27932258  0.34940126    -0.79700
O274        O  0.13834159  0.26125154  0.33245173    -0.89900
C275        C  0.09294986  0.33818855  0.42292156     0.84000
O276        O  0.18051470  0.28271084  0.39819605    -0.68100
O277        O  0.20537549  0.41390115  0.46021924    -0.87400
C278        C  0.15363257  0.26998235  0.42048576     0.84800
C279        C  0.10873502  0.25792654  0.33205465     1.06400
H280        H  0.17302919  0.34586529  0.43851273     0.38200
O281        O  0.16800626  0.35573454  0.41557722    -1.10100
O282        O  0.18997437  0.39730902  0.34369041    -0.66700
Ni283      Ni  0.20459304  0.37142796  0.37716898     1.26300
O284        O  0.13327320  0.28136545  0.41835001    -0.67000
O285        O  0.23709614  0.41291850  0.40786667    -0.79200
C286        C  0.25098618  0.36117373  0.33551363     0.84200
O287        O  0.24037776  0.38232345  0.33797758    -0.66400
Ni288      Ni  0.16077186  0.39089653  0.43540371     1.27400
Ni289      Ni  0.13314798  0.31735084  0.38397428     1.26100
H290        H  0.16808801  0.33571148  0.32313150     0.38700
O291        O  0.45983316  0.42855508  0.39950405    -0.81200
O292        O  0.39679690  0.26737577  0.39532756    -0.65900
O293        O  0.45463875  0.36627913  0.37376508    -1.12500
C294        C  0.35366049  0.35033828  0.31562262     1.05700
O295        O  0.37288876  0.25625321  0.33534904    -0.79100
O296        O  0.38732722  0.30589753  0.28012355    -0.66700
Ni297      Ni  0.47370261  0.39733546  0.41777748     1.34900
C298        C  0.41907857  0.33006180  0.27447148     0.84400
O299        O  0.46474341  0.31556368  0.40716930    -0.79700
O300        O  0.48893147  0.36829198  0.43835253    -0.89900
C301        C  0.37554066  0.24592546  0.36996067     0.84000
O302        O  0.43415194  0.37592833  0.45289584    -0.68100
O303        O  0.33931091  0.31718455  0.32010092    -0.87400
C304        C  0.41472719  0.34346031  0.46153404     0.84800
C305        C  0.48633178  0.33876950  0.43156200     1.06400
H306        H  0.37725338  0.32255473  0.38687213     0.38200
O307        O  0.39077519  0.32202343  0.36441928    -1.10100
O308        O  0.43500001  0.35669191  0.29771357    -0.66700
Ni309      Ni  0.42073688  0.36988252  0.34650250     1.26300
O310        O  0.41290256  0.31950668  0.43942718    -0.67000
O311        O  0.38582493  0.37258164  0.31949935    -0.79200
C312        C  0.46385575  0.44044581  0.36373264     0.84200
O313        O  0.45268036  0.41934816  0.33386225    -0.66400
Ni314      Ni  0.35804909  0.28838956  0.32787837     1.27400
Ni315      Ni  0.42676567  0.31686853  0.38540399     1.26100
H316        H  0.47327667  0.37081810  0.35540041     0.38700
C317        C  0.33255450  0.36412800  0.30390968     0.02800
C318        C  0.34406636  0.38746312  0.27135864    -0.13300
C319        C  0.32528246  0.40192301  0.25908159     0.00300
C320        C  0.29544956  0.39453661  0.28096199    -0.11900
C321        C  0.28376296  0.37133897  0.31433389     0.02800
C322        C  0.30216905  0.35545538  0.32519693    -0.11300
H323        H  0.36710023  0.39319859  0.25447260     0.08400
H324        H  0.28081827  0.40587593  0.27125459     0.05900
H325        H  0.29343983  0.33713404  0.35060691     0.05800
C326        C  0.26615455  0.44262671  0.46755918     0.02800
C327        C  0.27324513  0.42478004  0.99701286    -0.13300
C328        C  0.30539280  0.44152018  0.01662836     0.00300
C329        C  0.32986118  0.47695209  0.00720422    -0.11900
C330        C  0.32315433  0.99548741  0.47788381     0.02800
C331        C  0.29112439  0.47802109  0.45819817    -0.11300
H332        H  0.25400369  0.39720943  0.00340282     0.08400
H333        H  0.35457091  0.98975798  0.02207175     0.05900
H334        H  0.28619840  0.49125881  0.43425072     0.05800
C335        C  0.15026667  0.44964569  0.26505233     0.02800
C336        C  0.15623227  0.42754700  0.29009017    -0.13300
C337        C  0.17828394  0.44226691  0.32417075     0.00300
C338        C  0.19057429  0.47786362  0.33425106    -0.11900
C339        C  0.18483322  0.49910772  0.30843546     0.02800
C340        C  0.17015113  0.48593471  0.27102247    -0.11300
H341        H  0.14210432  0.39928499  0.28515801     0.08400
H342        H  0.20195277  0.48801660  0.36350286     0.05900
H343        H  0.16727998  0.00320581  0.25056638     0.05800
C344        C  0.29941717  0.15513418  0.39684592     0.02800
C345        C  0.31926938  0.19181236  0.38956342    -0.13300
C346        C  0.35468802  0.20839988  0.38002835     0.00300
C347        C  0.36964222  0.18837471  0.37747909    -0.11900
C348        C  0.34931241  0.15199820  0.38454079     0.02800
C349        C  0.31460936  0.13540147  0.39496561    -0.11300
H350        H  0.30704551  0.20698146  0.38973837     0.08400
H351        H  0.39679094  0.20087046  0.36914407     0.05900
H352        H  0.29903908  0.10689897  0.39921094     0.05800
C353        C  0.01755876  0.47918280  0.62680150     0.02800
C354        C  0.03833399  0.01611998  0.62845805    -0.13300
C355        C  0.02377037  0.03636753  0.62304327     0.00300
C356        C  0.48849007  0.01978006  0.61497221    -0.11900
C357        C  0.46724010  0.48282091  0.61423234     0.02800
C358        C  0.48188716  0.46239012  0.62037837    -0.11300
H359        H  0.06583310  0.02907643  0.63373851     0.08400
H360        H  0.47715668  0.03565955  0.61170870     0.05900
H361        H  0.46552354  0.43378772  0.62174697     0.05800
C362        C  0.20252070  0.35585225  0.65380397     0.02800
C363        C  0.18082589  0.31869863  0.65680302    -0.13300
C364        C  0.14497681  0.30192419  0.65221579     0.00300
C365        C  0.13063382  0.32209811  0.64626572    -0.11900
C366        C  0.15198996  0.35889049  0.64454522     0.02800
C367        C  0.18772003  0.37589956  0.64865474    -0.11300
H368        H  0.19202261  0.30267634  0.65971159     0.08400
H369        H  0.10298939  0.30916481  0.64203081     0.05900
H370        H  0.20400022  0.40439220  0.64503878     0.05800
C371        C  0.39338720  0.33239294  0.99863232     0.02800
C372        C  0.38479797  0.30063003  0.51810395    -0.13300
C373        C  0.36243523  0.28818808  0.55185664     0.00300
C374        C  0.34851204  0.30793138  0.56593410    -0.11900
C375        C  0.35785136  0.34017860  0.54728712     0.02800
C376        C  0.38056857  0.35252458  0.51395006    -0.11300
H377        H  0.39503351  0.28524050  0.50650245     0.08400
H378        H  0.33115308  0.29878267  0.59209236     0.05900
H379        H  0.38764994  0.37736785  0.99954223     0.05800
O380        O  0.03352427  0.44764607  0.66840624    -0.81200
O381        O  0.10893781  0.37071596  0.65452466    -0.65900
O382        O  0.09198774  0.44417098  0.65354155    -1.12500
C383        C  0.07176148  0.40338958  0.52516301     1.05700
O384        O  0.15148997  0.40462762  0.61006873    -0.79100
O385        O  0.15383107  0.46472575  0.58057624    -0.66700
Ni386      Ni  0.07093095  0.45102023  0.69908624     1.34900
C387        C  0.14199058  0.48425127  0.57269278     0.84400
O388        O  0.11239443  0.41113691  0.71372232    -0.79700
O389        O  0.10817702  0.45648976  0.73188437    -0.89900
C390        C  0.13663780  0.37897176  0.63569956     0.84000
O391        O  0.04099375  0.40252935  0.71509581    -0.68100
O392        O  0.10452783  0.42250724  0.52706923    -0.87400
C393        C  0.03053865  0.37410338  0.69565246     0.84800
C394        C  0.12157970  0.43775034  0.73567617     1.06400
H395        H  0.07192427  0.37652746  0.59783414     0.38200
O396        O  0.08964514  0.40091150  0.60300080    -1.10100
O397        O  0.10963159  0.47168018  0.57505860    -0.66700
Ni398      Ni  0.07105648  0.42935093  0.60116637     1.26300
O399        O  0.05042469  0.37142591  0.67004031    -0.67000
O400        O  0.05280992  0.40947571  0.54875530    -0.79200
C401        C  0.03410469  0.45926305  0.63289362     0.84200
O402        O  0.05016784  0.45634935  0.60291028    -0.66400
Ni403      Ni  0.12823063  0.41455601  0.56863324     1.27400
Ni404      Ni  0.09960663  0.40621534  0.65768553     1.26100
H405        H  0.11435732  0.46574232  0.65019056     0.38700
C406        C  0.17828270  0.07140815  0.51211560     0.02800
C407        C  0.15569538  0.03609645  0.52620031    -0.13300
C408        C  0.16560518  0.02186257  0.55848264     0.00300
C409        C  0.19767373  0.04410195  0.57770624    -0.11900
C410        C  0.21977518  0.07927301  0.56433574     0.02800
C411        C  0.21051181  0.09099241  0.53028762    -0.11300
H412        H  0.13092089  0.01966846  0.51199638     0.08400
H413        H  0.20455224  0.03455352  0.60375804     0.05900
H414        H  0.22904745  0.11715627  0.51833441     0.05800
C415        C  0.49351709  0.34454685  0.70386839     0.02800
C416        C  0.47385265  0.35038743  0.73299839    -0.13300
C417        C  0.43857603  0.32544204  0.74065295     0.00300
C418        C  0.42276693  0.29374570  0.71897851    -0.11900
C419        C  0.44126135  0.28646555  0.69057126     0.02800
C420        C  0.47667517  0.31212313  0.68246406    -0.11300
H421        H  0.48607833  0.37459975  0.75021882     0.08400
H422        H  0.39578143  0.27376796  0.72498197     0.05900
H423        H  0.49084548  0.30683429  0.66001438     0.05800
O424        O  0.36433688  0.12552437  0.66665807    -0.81200
O425        O  0.37206495  0.24202145  0.57054218    -0.65900
O426        O  0.35300237  0.17853723  0.65851369    -1.12500
C427        C  0.25061694  0.10754552  0.58609978     1.05700
O428        O  0.32335380  0.23718651  0.59034834    -0.79100
O429        O  0.27666580  0.18706186  0.64150283    -0.66700
Ni430      Ni  0.38917753  0.17458272  0.67926529     1.34900
C431        C  0.26606641  0.16244429  0.66749688     0.84400
O432        O  0.40836929  0.24846983  0.63683964    -0.79700
O433        O  0.41503256  0.22417239  0.69261139    -0.89900
C434        C  0.35220235  0.25398864  0.57130614     0.84000
O435        O  0.41692452  0.18306145  0.63130675    -0.68100
O436        O  0.25494409  0.13817422  0.58173293    -0.87400
C437        C  0.41181266  0.18457238  0.59385030     0.84800
C438        C  0.42171748  0.25110569  0.67138965     1.06400
H439        H  0.32599503  0.16591623  0.56845211     0.38200
O440        O  0.32228222  0.17377853  0.59419017    -1.10100
O441        O  0.27916267  0.14328274  0.66913311    -0.66700
Ni442      Ni  0.31227627  0.13870125  0.63439707     1.26300
O443        O  0.38965258  0.19198032  0.58209675    -0.67000
O444        O  0.27168342  0.10216017  0.60563699    -0.79200
C445        C  0.33508954  0.10362767  0.68266041     0.84200
O446        O  0.30852865  0.10489873  0.67434711    -0.66400
Ni447      Ni  0.28998440  0.18708104  0.58668607     1.27400
Ni448      Ni  0.36544764  0.21054440  0.61411585     1.26100
H449        H  0.34513332  0.18704196  0.68040294     0.38700
O450        O  0.24715480  0.35261274  0.62562856    -0.81200
O451        O  0.40877154  0.45633637  0.59150921    -0.65900
O452        O  0.31604887  0.39358998  0.62909468    -1.12500
C453        C  0.33511681  0.49572352  0.69206457     1.05700
O454        O  0.41942937  0.46434758  0.65666505    -0.79100
O455        O  0.36737164  0.43969809  0.71084380    -0.66700
Ni456      Ni  0.28415098  0.35795763  0.59340509     1.34900
C457        C  0.33579979  0.42254313  0.72170801     0.84400
O458        O  0.36638188  0.38714701  0.58741277    -0.79700
O459        O  0.31648116  0.35602680  0.55721599    -0.89900
C460        C  0.43001762  0.46704603  0.62037586     0.84000
O461        O  0.28577418  0.39403861  0.56202422    -0.68100
O462        O  0.36326569  0.99710793  0.69826353    -0.87400
C463        C  0.31237127  0.42176376  0.54742166     0.84800
C464        C  0.34615399  0.36222209  0.56488482     1.06400
H465        H  0.36367677  0.47842591  0.61361621     0.38200
O466        O  0.35884672  0.46007180  0.63302717    -1.10100
O467        O  0.31246623  0.42146863  0.70080815    -0.66700
Ni468      Ni  0.31089786  0.43281774  0.64571721     1.26300
O469        O  0.34366499  0.43244824  0.55816894    -0.67000
O470        O  0.31210765  0.47427734  0.66680253    -0.79200
C471        C  0.23955790  0.37211537  0.64491358     0.84200
O472        O  0.26133849  0.40446449  0.65344740    -0.66400
Ni473      Ni  0.38995063  0.47993394  0.67610201     1.27400
Ni474      Ni  0.36174024  0.42395136  0.60833212     1.26100
H475        H  0.31732815  0.38154218  0.65262954     0.38700
C476        C  0.36665488  0.06977623  0.76398174     0.02800
C477        C  0.35255564  0.03496419  0.75131686    -0.13300
C478        C  0.33253690  0.02240548  0.71559529     0.00300
C479        C  0.32193003  0.04305628  0.69662228    -0.11900
C480        C  0.33390311  0.07727712  0.71053132     0.02800
C481        C  0.35599401  0.09024457  0.74402002    -0.11300
H482        H  0.36138374  0.01940344  0.76563948     0.08400
H483        H  0.30907867  0.03487044  0.66778196     0.05900
H484        H  0.36717312  0.11767486  0.75234399     0.05800
C485        C  0.19238433  0.12381688  0.74883389     0.02800
C486        C  0.22470136  0.13455553  0.72964559    -0.13300
C487        C  0.23466770  0.15413300  0.69273413     0.00300
C488        C  0.21190051  0.16330165  0.67632914    -0.11900
C489        C  0.17939740  0.15167424  0.69423834     0.02800
C490        C  0.16993032  0.13186848  0.73008150    -0.11300
H491        H  0.24145322  0.12703170  0.74277364     0.08400
H492        H  0.21872395  0.17837653  0.64831338     0.05900
H493        H  0.14519888  0.12374727  0.74432550     0.05800
O494        O  0.12471728  0.24635195  0.68113937    -0.81200
O495        O  0.05666633  0.09253528  0.65521529    -0.65900
O496        O  0.11478132  0.19158038  0.63556313    -1.12500
C497        C  0.01513349  0.17469198  0.57496256     1.05700
O498        O  0.05156986  0.09070509  0.58883138    -0.79100
O499        O  0.07288798  0.14812799  0.54229623    -0.66700
Ni500      Ni  0.14674067  0.22062077  0.67504832     1.34900
C501        C  0.09149640  0.18142410  0.53748481     0.84400
O502        O  0.12374842  0.14013060  0.67532162    -0.79700
O503        O  0.16990897  0.19552937  0.67018617    -0.89900
C504        C  0.04531232  0.07491681  0.62271629     0.84000
O505        O  0.12077128  0.19200155  0.72085549    -0.68100
O506        O  0.01475867  0.14723000  0.56309558    -0.87400
C507        C  0.08804311  0.17403330  0.72458831     0.84800
C508        C  0.15641333  0.16279999  0.67805788     1.06400
H509        H  0.03269787  0.13883232  0.64181994     0.38200
O510        O  0.05199380  0.14646518  0.62318919    -1.10100
O511        O  0.09258905  0.20277861  0.56358884    -0.66700
Ni512      Ni  0.07687482  0.19658757  0.61948361     1.26300
O513        O  0.06975929  0.15092055  0.69852172    -0.67000
O514        O  0.03660502  0.19660528  0.60094969    -0.79200
C515        C  0.12315231  0.26340315  0.65163932     0.84200
O516        O  0.10406249  0.24734544  0.62153790    -0.66400
Ni517      Ni  0.03382948  0.11983834  0.57648246     1.27400
Ni518      Ni  0.08705828  0.14255987  0.64843944     1.26100
H519        H  0.12837159  0.19391513  0.61170623     0.38700
C520        C  0.43401565  0.17792204  0.56486620     0.02800
C521        C  0.46734541  0.18755520  0.57827252    -0.13300
C522        C  0.48784594  0.17830555  0.55620903     0.00300
C523        C  0.47630451  0.16160371  0.51879866    -0.11900
C524        C  0.44230406  0.14682240  0.00709309     0.02800
C525        C  0.42125091  0.15646882  0.52930840    -0.11300
H526        H  0.47633346  0.19997534  0.60743084     0.08400
H527        H  0.99273380  0.15550704  0.50125526     0.05900
H528        H  0.39466223  0.14547306  0.52081393     0.05800
C529        C  0.48486699  0.03387253  0.87434038     0.02800
C530        C  0.46596946  0.49758346  0.86473836    -0.13300
C531        C  0.48291940  0.47919428  0.85940622     0.00300
C532        C  0.01886525  0.49752222  0.86312283    -0.11900
C533        C  0.03787592  0.03329741  0.87368612     0.02800
C534        C  0.02086407  0.05151917  0.87941099    -0.11300
H535        H  0.43798914  0.48326050  0.86386568     0.08400
H536        H  0.03200893  0.48333306  0.85992176     0.05900
H537        H  0.03560504  0.07938684  0.88677822     0.05800
O538        O  0.09114990  0.05645572  0.83998391    -0.81200
O539        O  0.24537376  0.11839241  0.86873508    -0.65900
O540        O  0.14780722  0.06006856  0.87372040    -1.12500
C541        C  0.15831410  0.16141732  0.93625943     1.05700
O542        O  0.24719424  0.13707717  0.93120350    -0.79100
O543        O  0.19195534  0.12387689  0.97642708    -0.66700
Ni544      Ni  0.12222203  0.04107441  0.82676876     1.34900
C545        C  0.17204351  0.09022629  0.97811842     0.84400
O546        O  0.20003177  0.04991008  0.84911924    -0.79700
O547        O  0.15138515  0.02391587  0.81227974    -0.89900
C548        C  0.26216276  0.13625728  0.89906801     0.84000
O549        O  0.14759909  0.08114223  0.79182468    -0.68100
O550        O  0.19078684  0.17603023  0.93239990    -0.87400
C551        C  0.17992964  0.10233095  0.78702586     0.84800
C552        C  0.17921042  0.02651947  0.82431167     1.06400
H553        H  0.19158992  0.13926283  0.86741483     0.38200
O554        O  0.18963792  0.12429809  0.88974264    -1.10100
O555        O  0.14922947  0.07376720  0.95124380    -0.66700
Ni556      Ni  0.14162358  0.09331210  0.90198755     1.26300
O557        O  0.20123753  0.10568224  0.81365938    -0.67000
O558        O  0.13682483  0.12829199  0.93103715    -0.79200
C559        C  0.07572053  0.05142560  0.87403019     0.84200
O560        O  0.09257237  0.06096789  0.90689468    -0.66400
Ni561      Ni  0.21758250  0.15491889  0.93137490     1.27400
Ni562      Ni  0.19666006  0.08841306  0.86912143     1.26100
H563        H  0.14173558  0.04020587  0.89128592     0.38700
C564        C  0.11360695  0.19495871  0.50059645     0.02800
C565        C  0.12447555  0.17349383  0.98427968    -0.13300
C566        C  0.14557919  0.18380149  0.95004724     0.00300
C567        C  0.15630433  0.21630563  0.93133946    -0.11900
C568        C  0.14476886  0.23823333  0.94573103     0.02800
C569        C  0.12332707  0.22736344  0.98099026    -0.11300
H570        H  0.11745357  0.14883893  0.99919540     0.06800
H571        H  0.17266330  0.22374048  0.90440000     0.05900
H572        H  0.11399664  0.24351245  0.99264027     0.05800
C573        C  0.07235065  0.18297707  0.75871072     0.02800
C574        C  0.03714167  0.16294008  0.77078419    -0.13300
C575        C  0.02462100  0.17581978  0.80149875     0.00300
C576        C  0.04744889  0.20830079  0.82018104    -0.11900
C577        C  0.08239268  0.22732755  0.80928681     0.02800
C578        C  0.09408328  0.21507303  0.77800376    -0.11300
H579        H  0.01966614  0.13798203  0.75631749     0.08400
H580        H  0.03844995  0.21760369  0.84482210     0.05900
H581        H  0.12104909  0.23118513  0.76866401     0.05800
O582        O  0.46655089  0.06474724  0.91650161    -0.81200
O583        O  0.36324593  0.11239127  0.90793362    -0.65900
O584        O  0.40570652  0.06050658  0.89956767    -1.12500
C585        C  0.48854592  0.15519376  0.81675429     1.05700
O586        O  0.37766147  0.13241417  0.84474463    -0.79100
O587        O  0.41428535  0.12063081  0.79213799    -0.66700
Ni588      Ni  0.42479017  0.05484763  0.94642393     1.34900
C589        C  0.39560834  0.08717664  0.79380817     0.84400
O590        O  0.34698740  0.04682081  0.93468342    -0.79700
O591        O  0.38233692  0.04084287  0.97606027    -0.89900
C592        C  0.36417377  0.13121183  0.87886858     0.84000
O593        O  0.44591504  0.10333183  0.96604913    -0.68100
O594        O  0.47397669  0.17179669  0.82693759    -0.87400
C595        C  0.42942949  0.11850809  0.97493884     0.84800
C596        C  0.35209817  0.03004674  0.96252651     1.06400
H597        H  0.44223680  0.13801266  0.89664559     0.38200
O598        O  0.42558153  0.12240440  0.87721367    -1.10100
O599        O  0.40195381  0.06987318  0.81963106    -0.66700
Ni600      Ni  0.43873950  0.09058210  0.86040548     1.26300
O601        O  0.40175319  0.10942044  0.95717441    -0.67000
O602        O  0.47357228  0.12175290  0.82079270    -0.79200
C603        C  0.46651332  0.05252003  0.88113495     0.84200
O604        O  0.45139181  0.05690238  0.85161160    -0.66400
Ni605      Ni  0.42560367  0.15189289  0.83652625     1.27400
Ni606      Ni  0.38438172  0.08615952  0.90579483     1.26100
H607        H  0.38983978  0.03760289  0.88805025     0.38700
C608        C  0.01111095  0.33409749  0.95386300     0.02800
C609        C  0.02212399  0.35347937  0.98990437    -0.13300
C610        C  0.05680791  0.37191380  0.49905831     0.00300
C611        C  0.07806865  0.36193262  0.98039558    -0.11900
C612        C  0.06606978  0.33785711  0.94823754     0.02800
C613        C  0.03257711  0.32477396  0.93380740    -0.11300
H614        H  0.00554361  0.36054760  0.50539647     0.08400
H615        H  0.10507453  0.37517839  0.48847128     0.05900
H616        H  0.02532483  0.31190053  0.90466415     0.05800
O617        O  0.23362491  0.33071109  0.85197353    -0.81200
O618        O  0.09500275  0.31109662  0.91738942    -0.65900
O619        O  0.17211831  0.32973063  0.84973211    -1.12500
C620        C  0.23435941  0.42247872  0.94365729     1.05700
O621        O  0.11700302  0.36811211  0.90989475    -0.79100
O622        O  0.17863623  0.42457969  0.89160926    -0.66700
Ni623      Ni  0.18537653  0.29684411  0.84306164     1.34900
C624        C  0.18241719  0.41985480  0.85451346     0.84400
O625        O  0.10197886  0.27932264  0.84940145    -0.79700
O626        O  0.13834583  0.26125311  0.83245263    -0.89900
C627        C  0.09294837  0.33818735  0.92291789     0.84000
O628        O  0.18051658  0.28271384  0.89820033    -0.68100
O629        O  0.20537121  0.41390017  0.96022256    -0.87400
C630        C  0.15363338  0.26998391  0.92048828     0.84800
C631        C  0.10873909  0.25792770  0.83205463     1.06400
H632        H  0.17302766  0.34586484  0.93851578     0.38200
O633        O  0.16800526  0.35573396  0.91557953    -1.10100
O634        O  0.18997316  0.39730712  0.84369244    -0.66700
Ni635      Ni  0.20459322  0.37142852  0.87717262     1.26300
O636        O  0.13327309  0.28136566  0.91835153    -0.67000
O637        O  0.23709408  0.41292014  0.90787072    -0.79200
C638        C  0.25098783  0.36117558  0.83551772     0.84200
O639        O  0.24037937  0.38232529  0.83798216    -0.66400
Ni640      Ni  0.16076895  0.39089510  0.93540371     1.27400
Ni641      Ni  0.13314855  0.31735057  0.88397524     1.26100
H642        H  0.16809036  0.33571163  0.82313397     0.38700
O643        O  0.45983631  0.42855660  0.89950519    -0.81200
O644        O  0.39679709  0.26737658  0.89533166    -0.65900
O645        O  0.45463937  0.36627942  0.87376680    -1.12500
C646        C  0.35365952  0.35033727  0.81562464     1.05700
O647        O  0.37288952  0.25625379  0.83535298    -0.79100
O648        O  0.38732717  0.30589692  0.78012648    -0.66700
Ni649      Ni  0.47370399  0.39733559  0.91777952     1.34900
C650        C  0.41907780  0.33006254  0.77447266     0.84400
O651        O  0.46474313  0.31556345  0.90717207    -0.79700
O652        O  0.48893156  0.36829108  0.93835654    -0.89900
C653        C  0.37554134  0.24592613  0.86996462     0.84000
O654        O  0.43415269  0.37592969  0.95289715    -0.68100
O655        O  0.33931050  0.31718359  0.82010234    -0.87400
C656        C  0.41472837  0.34346184  0.96153659     0.84800
C657        C  0.48633110  0.33876821  0.93156574     1.06400
H658        H  0.37725354  0.32255529  0.88687520     0.38200
O659        O  0.39077533  0.32202386  0.86442234    -1.10100
O660        O  0.43499903  0.35669280  0.79771464    -0.66700
Ni661      Ni  0.42073660  0.36988261  0.84650515     1.26300
O662        O  0.41290353  0.31950790  0.93943020    -0.67000
O663        O  0.38582352  0.37258142  0.81950413    -0.79200
C664        C  0.46385574  0.44044581  0.86373339     0.84200
O665        O  0.45267927  0.41934765  0.83386376    -0.66400
Ni666      Ni  0.35804931  0.28838952  0.82788153     1.27400
Ni667      Ni  0.42676588  0.31686895  0.88540691     1.26100
H668        H  0.47327684  0.37081803  0.85540158     0.38700
C669        C  0.33255329  0.36412606  0.80390974     0.02800
C670        C  0.34406532  0.38746079  0.77135833    -0.13300
C671        C  0.32528236  0.40192200  0.75908198     0.00300
C672        C  0.29545046  0.39453736  0.78096372    -0.11900
C673        C  0.28376348  0.37133947  0.81433558     0.02800
C674        C  0.30216830  0.35545421  0.82519714    -0.11300
H675        H  0.36709883  0.39319543  0.75447205     0.08400
H676        H  0.28082027  0.40587820  0.77125741     0.05900
H677        H  0.29343900  0.33713281  0.85060706     0.05800
C678        C  0.26615081  0.44262973  0.96756332     0.02800
C679        C  0.27324867  0.42477652  0.49700837    -0.13300
C680        C  0.30539517  0.44151756  0.51662678     0.00300
C681        C  0.32986277  0.47695013  0.50720486    -0.11900
C682        C  0.32315507  0.99548784  0.97788277     0.02800
C683        C  0.29112129  0.47802371  0.95820029    -0.11300
H684        H  0.25400775  0.39720544  0.50339688     0.08400
H685        H  0.35457132  0.98975625  0.52206990     0.05900
H686        H  0.28619508  0.49126114  0.93425269     0.05800
C687        C  0.15026899  0.44964512  0.76505297     0.02800
C688        C  0.15623388  0.42754618  0.79009101    -0.13300
C689        C  0.17828432  0.44226574  0.82417237     0.00300
C690        C  0.19057394  0.47786211  0.83425325    -0.11900
C691        C  0.18483429  0.49910662  0.80843669     0.02800
C692        C  0.17015382  0.48593409  0.77102291    -0.11300
H693        H  0.14210594  0.39928419  0.78515862     0.08400
H694        H  0.20195091  0.48801457  0.86350581     0.05900
H695        H  0.16727857  0.00320651  0.75056385     0.05800
C696        C  0.29941851  0.15513429  0.89684924     0.02800
C697        C  0.31927061  0.19181260  0.88956757    -0.13300
C698        C  0.35468920  0.20840048  0.88003200     0.00300
C699        C  0.36964351  0.18837546  0.87748121    -0.11900
C700        C  0.34931390  0.15199884  0.88454237     0.02800
C701        C  0.31461097  0.13540185  0.89496790    -0.11300
H702        H  0.30704665  0.20698160  0.88974327     0.08400
H703        H  0.39679216  0.20087140  0.86914564     0.05900
H704        H  0.29904090  0.10689930  0.89921282     0.05800
C705        C  0.01756731  0.97918889  0.12679718     0.02800
C706        C  0.03833007  0.51611757  0.12844255    -0.13300
C707        C  0.02376832  0.53636590  0.12302721     0.00300
C708        C  0.48848655  0.51978056  0.11497008    -0.11900
C709        C  0.46724570  0.98282426  0.11422271     0.02800
C710        C  0.48189619  0.96239560  0.12036446    -0.11300
H711        H  0.06583061  0.52907302  0.13371307     0.08400
H712        H  0.47715460  0.53566149  0.11170775     0.05900
H713        H  0.46553442  0.93379295  0.12172542     0.05800
C714        C  0.20252741  0.85585044  0.15384897     0.02800
C715        C  0.18083374  0.81869477  0.15684129    -0.13300
C716        C  0.14498464  0.80191654  0.15224172     0.00300
C717        C  0.13063918  0.82208828  0.14629937    -0.11900
C718        C  0.15199124  0.85888047  0.14458320     0.02800
C719        C  0.18772184  0.87589427  0.14870024    -0.11300
H720        H  0.19203188  0.80267374  0.15974776     0.08400
H721        H  0.10299537  0.80915233  0.14205735     0.05900
H722        H  0.20399863  0.90438714  0.14508395     0.05800
C723        C  0.39339183  0.83239693  0.49864860     0.02800
C724        C  0.38480480  0.80063982  0.01813505    -0.13300
C725        C  0.36242400  0.78819091  0.05187348     0.00300
C726        C  0.34848024  0.80792433  0.06592334    -0.11900
C727        C  0.35781232  0.84016561  0.04726217     0.02800
C728        C  0.38054641  0.85251524  0.01393836    -0.11300
H729        H  0.39505835  0.78526041  0.00655452     0.08400
H730        H  0.33111476  0.79877577  0.09207558     0.05900
H731        H  0.38762906  0.87735573  0.49952342     0.05800
O732        O  0.03353130  0.94765263  0.16840683    -0.81200
O733        O  0.10892661  0.87069339  0.15452695    -0.65900
O734        O  0.09198389  0.94415431  0.15354125    -1.12500
C735        C  0.07176590  0.90337721  0.02516298     1.05700
O736        O  0.15148374  0.90459935  0.11007186    -0.79100
O737        O  0.15383444  0.96470457  0.08057175    -0.66700
Ni738      Ni  0.07093151  0.95101171  0.19908432     1.34900
C739        C  0.14199529  0.98423231  0.07269108     0.84400
O740        O  0.11238244  0.91111373  0.21372234    -0.79700
O741        O  0.10817352  0.95647211  0.23187887    -0.89900
C742        C  0.13663323  0.87895262  0.13571479     0.84000
O743        O  0.04098401  0.90252126  0.21509216    -0.68100
O744        O  0.10453127  0.92249233  0.02707323    -0.87400
C745        C  0.03052795  0.87409152  0.19565569     0.84800
C746        C  0.12157617  0.93773293  0.23566823     1.06400
H747        H  0.07191718  0.87650960  0.09783498     0.38200
O748        O  0.08963970  0.90089292  0.10300183    -1.10100
O749        O  0.10963650  0.97166388  0.07506085    -0.66700
Ni750      Ni  0.07105552  0.92933716  0.10116590     1.26300
O751        O  0.05041205  0.87140980  0.17004317    -0.67000
O752        O  0.05281238  0.90946267  0.04875344    -0.79200
C753        C  0.03411258  0.95926661  0.13289217     0.84200
O754        O  0.05017032  0.95634233  0.10290889    -0.66400
Ni755      Ni  0.12822721  0.91453295  0.06863619     1.27400
Ni756      Ni  0.09959701  0.90619437  0.15768649     1.26100
H757        H  0.11435540  0.96572335  0.15019016     0.38700
C758        C  0.17828885  0.57142546  0.01210634     0.02800
C759        C  0.15569558  0.53611664  0.02619650    -0.13300
C760        C  0.16560024  0.52188272  0.05848414     0.00300
C761        C  0.19766772  0.54411898  0.07770939    -0.11900
C762        C  0.21977601  0.57928561  0.06433173     0.02800
C763        C  0.21052004  0.59100465  0.03027746    -0.11300
H764        H  0.13092122  0.51969044  0.01199191     0.08400
H765        H  0.20454129  0.53457127  0.10376646     0.05900
H766        H  0.22906295  0.61716517  0.01832155     0.05800
C767        C  0.49350697  0.84453493  0.20388190     0.02800
C768        C  0.47384962  0.85037380  0.23302417    -0.13300
C769        C  0.43857032  0.82543414  0.24067625     0.00300
C770        C  0.42275577  0.79373739  0.21900360    -0.11900
C771        C  0.44124639  0.78645445  0.19059396     0.02800
C772        C  0.47665777  0.81211331  0.18247436    -0.11300
H773        H  0.48608166  0.87458298  0.25025066     0.08400
H774        H  0.39576974  0.77376269  0.22500968     0.05900
H775        H  0.49082137  0.80682593  0.16001361     0.05800
O776        O  0.36432466  0.62551100  0.16666594    -0.81200
O777        O  0.37205952  0.74202564  0.07056475    -0.65900
O778        O  0.35299219  0.67852493  0.15852403    -1.12500
C779        C  0.25061697  0.60755408  0.08609690     1.05700
O780        O  0.32335889  0.73719612  0.09039513    -0.79100
O781        O  0.27666699  0.68705592  0.14152396    -0.66700
Ni782      Ni  0.38916536  0.67456880  0.17927707     1.34900
C783        C  0.26606165  0.66242971  0.16750630     0.84400
O784        O  0.40835229  0.74846367  0.13686466    -0.79700
O785        O  0.41502094  0.72415963  0.19262655    -0.89900
C786        C  0.35219996  0.75399656  0.07133819     0.84000
O787        O  0.41691143  0.68304402  0.13131847    -0.68100
O788        O  0.25494849  0.63818536  0.08173242    -0.87400
C789        C  0.41180693  0.68456802  0.09386235     0.84800
C790        C  0.42170105  0.75109529  0.17141197     1.06400
H791        H  0.32599345  0.66592141  0.06845850     0.38200
O792        O  0.32227926  0.67377824  0.09419958    -1.10100
O793        O  0.27915531  0.64326650  0.16913650    -0.66700
Ni794      Ni  0.31226985  0.63869310  0.13439880     1.26300
O795        O  0.38965258  0.69198547  0.08211072    -0.67000
O796        O  0.27167856  0.60216126  0.10563367    -0.79200
C797        C  0.33507555  0.60361201  0.18266197     0.84200
O798        O  0.30851528  0.60488181  0.17434201    -0.66400
Ni799      Ni  0.28998802  0.68709098  0.08670674     1.27400
Ni800      Ni  0.36543948  0.71054027  0.11413260     1.26100
H801        H  0.34512010  0.68702485  0.18041527     0.38700
O802        O  0.24716845  0.85260339  0.12569978    -0.81200
O803        O  0.40876944  0.95631761  0.09150301    -0.65900
O804        O  0.31604979  0.89359610  0.12910404    -1.12500
C805        C  0.33512321  0.99573427  0.19205805     1.05700
O806        O  0.41943761  0.96435922  0.15665813    -0.79100
O807        O  0.36737599  0.93970236  0.21084382    -0.66700
Ni808      Ni  0.28414852  0.85797035  0.09341760     1.34900
C809        C  0.33580355  0.92254996  0.22170820     0.84400
O810        O  0.36635606  0.88712076  0.08742569    -0.79700
O811        O  0.31647541  0.85607315  0.05717792    -0.89900
C812        C  0.43002065  0.96704490  0.12036747     0.84000
O813        O  0.28574919  0.89406084  0.06208037    -0.68100
O814        O  0.36326422  0.49710692  0.19825991    -0.87400
C815        C  0.31234949  0.92176587  0.04744760     0.84800
C816        C  0.34612977  0.86222292  0.06486627     1.06400
H817        H  0.36368666  0.97842826  0.11360529     0.38200
O818        O  0.35885370  0.96007623  0.13302093    -1.10100
O819        O  0.31247347  0.92148580  0.20081010    -0.66700
Ni820      Ni  0.31090478  0.93282933  0.14571440     1.26300
O821        O  0.34364616  0.93242882  0.05816754    -0.67000
O822        O  0.31211949  0.97429485  0.16678737    -0.79200
C823        C  0.23956674  0.87211749  0.14495275     0.84200
O824        O  0.26134312  0.90447931  0.15344336    -0.66400
Ni825      Ni  0.38995459  0.97993969  0.17609964     1.27400
Ni826      Ni  0.36173521  0.92394347  0.10833331     1.26100
H827        H  0.31732745  0.88154887  0.15264045     0.38700
C828        C  0.36665923  0.56977708  0.26397432     0.02800
C829        C  0.35255977  0.53496345  0.25131500    -0.13300
C830        C  0.33253125  0.52239663  0.21560104     0.00300
C831        C  0.32191603  0.54304142  0.19663095    -0.11900
C832        C  0.33388935  0.57726369  0.21053585     0.02800
C833        C  0.35598821  0.59023809  0.24401770    -0.11300
H834        H  0.36139418  0.51940723  0.26563508     0.08400
H835        H  0.30905924  0.53485079  0.16779410     0.05900
H836        H  0.36716659  0.61766893  0.25233856     0.05800
C837        C  0.19237159  0.62379103  0.24882612     0.02800
C838        C  0.22468965  0.63452946  0.22964228    -0.13300
C839        C  0.23465977  0.65411175  0.19273546     0.00300
C840        C  0.21189569  0.66328269  0.17632800    -0.11900
C841        C  0.17939392  0.65165902  0.19423617     0.02800
C842        C  0.16992251  0.63184986  0.23007690    -0.11300
H843        H  0.24143964  0.62700307  0.24277052     0.08400
H844        H  0.21872146  0.67835857  0.14831269     0.05900
H845        H  0.14519192  0.62373099  0.24432151     0.05800
O846        O  0.12471130  0.74633235  0.18114077    -0.81200
O847        O  0.05667124  0.59253149  0.15519285    -0.65900
O848        O  0.11478998  0.69157458  0.13555454    -1.12500
C849        C  0.01513920  0.67469212  0.07494499     1.05700
O850        O  0.05156900  0.59069950  0.08880750    -0.79100
O851        O  0.07288917  0.64812356  0.04226523    -0.66700
Ni852      Ni  0.14674181  0.72060850  0.17504949     1.34900
C853        C  0.09150648  0.68142053  0.03746449     0.84400
O854        O  0.12375015  0.64012150  0.17531234    -0.79700
O855        O  0.16991295  0.69552034  0.17018769    -0.89900
C856        C  0.04531289  0.57491340  0.12269435     0.84000
O857        O  0.12077386  0.69198258  0.22085328    -0.68100
O858        O  0.01476481  0.64723199  0.06307018    -0.87400
C859        C  0.08804635  0.67401362  0.22458892     0.84800
C860        C  0.15641473  0.66278959  0.17805498     1.06400
H861        H  0.03270745  0.63883195  0.14179711     0.38200
O862        O  0.05200323  0.64646351  0.12316679    -1.10100
O863        O  0.09260583  0.70277425  0.06357488    -0.66700
Ni864      Ni  0.07688678  0.69658541  0.11946690     1.26300
O865        O  0.06976145  0.65091160  0.19851151    -0.67000
O866        O  0.03661676  0.69660565  0.10092873    -0.79200
C867        C  0.12316041  0.76339440  0.15164324     0.84200
O868        O  0.10408020  0.74734567  0.12153046    -0.66400
Ni869      Ni  0.03383364  0.61983734  0.07645750     1.27400
Ni870      Ni  0.08706412  0.64255474  0.14842491     1.26100
H871        H  0.12838421  0.69391128  0.11170057     0.38700
C872        C  0.43401085  0.67791980  0.06487522     0.02800
C873        C  0.46734024  0.68754591  0.07827982    -0.13300
C874        C  0.48784223  0.67830213  0.05620585     0.00300
C875        C  0.47629624  0.66160499  0.01879366    -0.11900
C876        C  0.44229509  0.64682843  0.50709029     0.02800
C877        C  0.42124501  0.65647433  0.02931188    -0.11300
H878        H  0.47632781  0.69995867  0.10744164     0.08400
H879        H  0.99272383  0.65551064  0.00124314     0.05900
H880        H  0.39465695  0.64548314  0.02081793     0.05800
C881        C  0.48485042  0.53387244  0.37434862     0.02800
C882        C  0.46599004  0.99758515  0.36472083    -0.13300
C883        C  0.48294091  0.97919545  0.35940360     0.00300
C884        C  0.01888546  0.99752252  0.36313337    -0.11900
C885        C  0.03786027  0.53329848  0.37367315     0.02800
C886        C  0.02084956  0.55152085  0.37940409    -0.11300
H887        H  0.43801039  0.98326193  0.36383511     0.08400
H888        H  0.03203110  0.98333474  0.35993821     0.05900
H889        H  0.03559251  0.57939003  0.38676395     0.05800
O890        O  0.09112821  0.55642212  0.33996402    -0.81200
O891        O  0.24537012  0.61839399  0.36870420    -0.65900
O892        O  0.14780238  0.56006953  0.37372227    -1.12500
C893        C  0.15833783  0.66143669  0.43624492     1.05700
O894        O  0.24720962  0.63708479  0.43116926    -0.79100
O895        O  0.19198749  0.62389236  0.47640738    -0.66700
Ni896      Ni  0.12221039  0.54104783  0.32677521     1.34900
C897        C  0.17205423  0.59024469  0.47810911     0.84400
O898        O  0.20003452  0.54991575  0.34911961    -0.79700
O899        O  0.15137522  0.52389147  0.31230591    -0.89900
C900        C  0.26216903  0.63626631  0.39902656     0.84000
O901        O  0.14758538  0.58109743  0.29180214    -0.68100
O902        O  0.19081024  0.67604251  0.43239309    -0.87400
C903        C  0.17991508  0.60230427  0.28701462     0.84800
C904        C  0.17921249  0.52651639  0.32432291     1.06400
H905        H  0.19159592  0.63926729  0.36740098     0.38200
O906        O  0.18964132  0.62430285  0.38973046    -1.10100
O907        O  0.14922443  0.57379059  0.45124625    -0.66700
Ni908      Ni  0.14162491  0.59332527  0.40197209     1.26300
O909        O  0.20122385  0.60567751  0.31365767    -0.67000
O910        O  0.13683880  0.62831666  0.43100420    -0.79200
C911        C  0.07570743  0.55142352  0.37401116     0.84200
O912        O  0.09256653  0.56099020  0.40687212    -0.66400
Ni913      Ni  0.21760116  0.65492863  0.43135141     1.27400
Ni914      Ni  0.19665751  0.58841441  0.36911511     1.26100
H915        H  0.14173398  0.54021508  0.39130044     0.38700
C916        C  0.11362236  0.69496031  0.00058270     0.02800
C917        C  0.12449031  0.67349799  0.48426264    -0.13300
C918        C  0.14561065  0.68382155  0.45004419     0.00300
C919        C  0.15634685  0.71633295  0.43135264    -0.11900
C920        C  0.14480140  0.73825151  0.44574340     0.02800
C921        C  0.12335075  0.72737226  0.48099424    -0.11300
H922        H  0.11745626  0.64883370  0.49916351     0.06800
H923        H  0.17271531  0.72377621  0.40442047     0.05900
H924        H  0.11401758  0.74351818  0.49264648     0.05800
C925        C  0.07235911  0.68295207  0.25872515     0.02800
C926        C  0.03714798  0.66292673  0.27079187    -0.13300
C927        C  0.02463118  0.67581564  0.30150125     0.00300
C928        C  0.04746309  0.70829687  0.32018025    -0.11900
C929        C  0.08240974  0.72730985  0.30929979     0.02800
C930        C  0.09409962  0.71504034  0.27803110    -0.11300
H931        H  0.01966726  0.63797214  0.25632159     0.08400
H932        H  0.03846421  0.71760991  0.34481050     0.05900
H933        H  0.12106882  0.73114097  0.26870270     0.05800
O934        O  0.46654020  0.56475386  0.41650447    -0.81200
O935        O  0.36323458  0.61239450  0.40789355    -0.65900
O936        O  0.40570148  0.56051535  0.39956367    -1.12500
C937        C  0.48855502  0.65519747  0.31675528     1.05700
O938        O  0.37766959  0.63241677  0.34470453    -0.79100
O939        O  0.41430043  0.62063674  0.29211776    -0.66700
Ni940      Ni  0.42477993  0.55485559  0.44642331     1.34900
C941        C  0.39561748  0.58718269  0.29379485     0.84400
O942        O  0.34697908  0.54682380  0.43466924    -0.79700
O943        O  0.38232998  0.54085865  0.47605647    -0.89900
C944        C  0.36417248  0.63121506  0.37882076     0.84000
O945        O  0.44590219  0.60333784  0.46604690    -0.68100
O946        O  0.47398905  0.67180451  0.32693480    -0.87400
C947        C  0.42941823  0.61851663  0.47493199     0.84800
C948        C  0.35209211  0.53005312  0.46251625     1.06400
H949        H  0.44223248  0.63802072  0.39663692     0.38200
O950        O  0.42557987  0.62241230  0.37720271    -1.10100
O951        O  0.40195737  0.56988096  0.31962575    -0.66700
Ni952      Ni  0.43873804  0.59058921  0.36040406     1.26300
O953        O  0.40174501  0.60943399  0.45716002    -0.67000
O954        O  0.47357606  0.62175652  0.32079516    -0.79200
C955        C  0.46650145  0.55252333  0.38113995     0.84200
O956        O  0.45138446  0.55690723  0.35161394    -0.66400
Ni957      Ni  0.42561285  0.65189993  0.33650543     1.27400
Ni958      Ni  0.38437551  0.58616644  0.40577946     1.26100
H959        H  0.38983636  0.53761165  0.38804534     0.38700
C960        C  0.01112823  0.83410299  0.45384480     0.02800
C961        C  0.02213531  0.85347710  0.48989029    -0.13300
C962        C  0.05681657  0.87190646  0.99905334     0.00300
C963        C  0.07807683  0.86192105  0.48039460    -0.11900
C964        C  0.06608009  0.83785057  0.44823177     0.02800
C965        C  0.03259250  0.82477638  0.43379235    -0.11300
H966        H  0.00555509  0.86054773  0.00538098     0.08400
H967        H  0.10508313  0.87516828  0.98847181     0.05900
H968        H  0.02534395  0.81190788  0.40464604     0.05800
O969        O  0.23363415  0.83072088  0.35199374    -0.81200
O970        O  0.09501437  0.81109171  0.41739152    -0.65900
O971        O  0.17212833  0.82972746  0.34973807    -1.12500
C972        C  0.23435698  0.92248580  0.44365774     1.05700
O973        O  0.11700826  0.86810568  0.40988339    -0.79100
O974        O  0.17864421  0.92457709  0.39159636    -0.66700
Ni975      Ni  0.18539331  0.79684737  0.34307138     1.34900
C976        C  0.18241899  0.91984706  0.35449993     0.84400
O977        O  0.10199168  0.77931021  0.34940829    -0.79700
O978        O  0.13836580  0.76125003  0.33245824    -0.89900
C979        C  0.09295771  0.83818160  0.42291349     0.84000
O980        O  0.18053765  0.78272637  0.39820988    -0.68100
O981        O  0.20536753  0.91390015  0.46022370    -0.87400
C982        C  0.15365679  0.76999605  0.42049991     0.84800
C983        C  0.10875591  0.75791737  0.33206201     1.06400
H984        H  0.17303724  0.84587048  0.43851867     0.38200
O985        O  0.16801183  0.85573503  0.41558054    -1.10100
O986        O  0.18996776  0.89729387  0.34368212    -0.66700
Ni987      Ni  0.20459858  0.87143186  0.37717344     1.26300
O988        O  0.13329038  0.78136956  0.41836114    -0.67000
O989        O  0.23709351  0.91293456  0.40786663    -0.79200
C990        C  0.25099029  0.86117756  0.33552076     0.84200
O991        O  0.24038353  0.88232864  0.33798289    -0.66400
Ni992      Ni  0.16077066  0.89089463  0.43539637     1.27400
Ni993      Ni  0.13315877  0.81734578  0.38397890     1.26100
H994        H  0.16809757  0.83570329  0.32313875     0.38700
O995        O  0.45984192  0.92855571  0.39950647    -0.81200
O996        O  0.39680468  0.76738307  0.39533972    -0.65900
O997        O  0.45464399  0.86628453  0.37377775    -1.12500
C998        C  0.35365688  0.85033499  0.31563745     1.05700
O999        O  0.37292243  0.75628290  0.33534975    -0.79100
O1000       O  0.38731633  0.80591667  0.28013335    -0.66700
Ni1001     Ni  0.47372457  0.89734680  0.41777861     1.34900
C1002       C  0.41907462  0.83006405  0.27448940     0.84400
O1003       O  0.46475146  0.81557005  0.40717346    -0.79700
O1004       O  0.48896875  0.86831188  0.43833332    -0.89900
C1005       C  0.37555930  0.74594102  0.36995896     0.84000
O1006       O  0.43419146  0.87593925  0.45293369    -0.68100
O1007       O  0.33930302  0.81718341  0.32015088    -0.87400
C1008       C  0.41474960  0.84346933  0.46156161     0.84800
C1009       C  0.48635488  0.83878176  0.43154894     1.06400
H1010       H  0.37726256  0.82256753  0.38689386     0.38200
O1011       O  0.39078138  0.82203276  0.36443972    -1.10100
O1012       O  0.43500513  0.85668791  0.29773581    -0.66700
Ni1013     Ni  0.42074124  0.86988670  0.34651252     1.26300
O1014       O  0.41291155  0.81951372  0.43944562    -0.67000
O1015       O  0.38582578  0.87257683  0.31949352    -0.79200
C1016       C  0.46387189  0.94044718  0.36373315     0.84200
O1017       O  0.45268859  0.91934878  0.33386368    -0.66400
Ni1018     Ni  0.35805552  0.78839824  0.32790280     1.27400
Ni1019     Ni  0.42677242  0.81687629  0.38541923     1.26100
H1020       H  0.47327895  0.87081902  0.35541060     0.38700
C1021       C  0.33254931  0.86412139  0.30391100     0.02800
C1022       C  0.34406317  0.88745848  0.27135958    -0.13300
C1023       C  0.32527992  0.90191943  0.25907866     0.00300
C1024       C  0.29544398  0.89452939  0.28095561    -0.11900
C1025       C  0.28375730  0.87133164  0.31432758     0.02800
C1026       C  0.30216015  0.85544492  0.32519020    -0.11300
H1027       H  0.36710009  0.89319751  0.25447859     0.08400
H1028       H  0.28081384  0.90587055  0.27124993     0.05900
H1029       H  0.29342928  0.83712325  0.35060012     0.05800
C1030       C  0.26614557  0.94263363  0.46757015     0.02800
C1031       C  0.27323167  0.92478167  0.99702579    -0.13300
C1032       C  0.30537691  0.94151825  0.01664732     0.00300
C1033       C  0.32985208  0.97694670  0.00722057    -0.11900
C1034       C  0.32315659  0.49548866  0.47787139     0.02800
C1035       C  0.29112257  0.97802603  0.45820778    -0.11300
H1036       H  0.25398596  0.89721261  0.00341790     0.08400
H1037       H  0.35458200  0.48976729  0.02205148     0.05900
H1038       H  0.28620320  0.99126574  0.43425623     0.05800
C1039       C  0.15027145  0.94963422  0.26503658     0.02800
C1040       C  0.15625006  0.92754007  0.29006436    -0.13300
C1041       C  0.17828775  0.94225858  0.32415610     0.00300
C1042       C  0.19056210  0.97785114  0.33424519    -0.11900
C1043       C  0.18481768  0.99909529  0.30843211     0.02800
C1044       C  0.17013898  0.98592281  0.27101801    -0.11300
H1045       H  0.14213622  0.89927991  0.28512051     0.08400
H1046       H  0.20193351  0.98800103  0.36350041     0.05900
H1047       H  0.16729825  0.50322032  0.25056815     0.05800
C1048       C  0.29942325  0.65514285  0.39679159     0.02800
C1049       C  0.31928076  0.69182524  0.38953691    -0.13300
C1050       C  0.35470059  0.70841213  0.38000645     0.00300
C1051       C  0.36964976  0.68838288  0.37743761    -0.11900
C1052       C  0.34931376  0.65200350  0.38447710     0.02800
C1053       C  0.31460947  0.63540644  0.39488768    -0.11300
H1054       H  0.30706111  0.70699846  0.38973114     0.08400
H1055       H  0.39680037  0.70087880  0.36911202     0.05900
H1056       H  0.29903581  0.60690232  0.39911737     0.05800
C1057       C  0.01756731  0.97918888  0.62679481     0.02800
C1058       C  0.03833001  0.51611354  0.62844650    -0.13300
C1059       C  0.02376950  0.53636256  0.62302658     0.00300
C1060       C  0.48848800  0.51977735  0.61496813    -0.11900
C1061       C  0.46724502  0.98282313  0.61422185     0.02800
C1062       C  0.48189619  0.96239506  0.62036243    -0.11300
H1063       H  0.06583038  0.52906859  0.63371787     0.08400
H1064       H  0.47715683  0.53565870  0.61170242     0.05900
H1065       H  0.46553497  0.93379234  0.62172249     0.05800
C1066       C  0.20252519  0.85584863  0.65385271     0.02800
C1067       C  0.18083075  0.81869271  0.65684474    -0.13300
C1068       C  0.14498165  0.80191445  0.65224167     0.00300
C1069       C  0.13063675  0.82208651  0.64629749    -0.11900
C1070       C  0.15198916  0.85887876  0.64458312     0.02800
C1071       C  0.18771961  0.87589234  0.64870298    -0.11300
H1072       H  0.19202855  0.80267152  0.65975301     0.08400
H1073       H  0.10299323  0.80915092  0.64205308     0.05900
H1074       H  0.20399653  0.90438523  0.64508754     0.05800
C1075       C  0.39338999  0.83239568  0.99864736     0.02800
C1076       C  0.38480580  0.80064027  0.51813505    -0.13300
C1077       C  0.36242428  0.78819047  0.55187283     0.00300
C1078       C  0.34847977  0.80792330  0.56592252    -0.11900
C1079       C  0.35781296  0.84016555  0.54726313     0.02800
C1080       C  0.38054904  0.85251684  0.51394102    -0.11300
H1081       H  0.39505914  0.78526084  0.50655396     0.08400
H1082       H  0.33111311  0.79877369  0.59207369     0.05900
H1083       H  0.38762522  0.87735315  0.99951911     0.05800
O1084       O  0.03353091  0.94765212  0.66840336    -0.81200
O1085       O  0.10892610  0.87069406  0.65452607    -0.65900
O1086       O  0.09198431  0.94415558  0.65353843    -1.12500
C1087       C  0.07176616  0.90337547  0.52516071     1.05700
O1088       O  0.15148325  0.90459756  0.61006961    -0.79100
O1089       O  0.15383563  0.96470311  0.58056686    -0.66700
Ni1090     Ni  0.07093134  0.95101290  0.69908130     1.34900
C1091       C  0.14199683  0.98423134  0.57268723     0.84400
O1092       O  0.11238070  0.91111455  0.71372093    -0.79700
O1093       O  0.10817322  0.95647411  0.73187604    -0.89900
C1094       C  0.13663214  0.87895164  0.63571354     0.84000
O1095       O  0.04098474  0.90252272  0.71509067    -0.68100
O1096       O  0.10453157  0.92249057  0.52707024    -0.87400
C1097       C  0.03052818  0.87409326  0.69565342     0.84800
C1098       C  0.12157483  0.93773406  0.73566638     1.06400
H1099       H  0.07191791  0.87651032  0.59783353     0.38200
O1100       O  0.08964068  0.90089371  0.60299973    -1.10100
O1101       O  0.10963812  0.97166382  0.57505788    -0.66700
Ni1102     Ni  0.07105630  0.92933759  0.60116299     1.26300
O1103       O  0.05041182  0.87141191  0.67003986    -0.67000
O1104       O  0.05281309  0.90946183  0.54875081    -0.79200
C1105       C  0.03411275  0.95926674  0.63288899     0.84200
O1106       O  0.05017039  0.95634235  0.60290549    -0.66400
Ni1107     Ni  0.12822728  0.91453130  0.56863341     1.27400
Ni1108     Ni  0.09959709  0.90619560  0.65768453     1.26100
H1109       H  0.11435580  0.96572463  0.65018731     0.38700
C1110       C  0.17828547  0.57142520  0.51211246     0.02800
C1111       C  0.15569282  0.53611588  0.52620191    -0.13300
C1112       C  0.16559832  0.52188173  0.55848877     0.00300
C1113       C  0.19766601  0.54411821  0.57771366    -0.11900
C1114       C  0.21977314  0.57928544  0.56433720     0.02800
C1115       C  0.21051603  0.59100479  0.53028445    -0.11300
H1116       H  0.13091868  0.51968933  0.51199700     0.08400
H1117       H  0.20454076  0.53457011  0.60376929     0.05900
H1118       H  0.22905870  0.61716544  0.51832882     0.05800
C1119       C  0.49350761  0.84453621  0.70388042     0.02800
C1120       C  0.47385101  0.85037373  0.73302511    -0.13300
C1121       C  0.43857176  0.82543391  0.74067732     0.00300
C1122       C  0.42275706  0.79373743  0.71900424    -0.11900
C1123       C  0.44124724  0.78645506  0.69059322     0.02800
C1124       C  0.47665804  0.81211505  0.68247174    -0.11300
H1125       H  0.48608348  0.87458230  0.75025279     0.08400
H1126       H  0.39577123  0.77376248  0.72501100     0.05900
H1127       H  0.49082113  0.80682870  0.66000918     0.05800
O1128       O  0.36432412  0.62550993  0.66666851    -0.81200
O1129       O  0.37205955  0.74202488  0.57056460    -0.65900
O1130       O  0.35299244  0.67852451  0.65852472    -1.12500
C1131       C  0.25061559  0.60755394  0.58610022     1.05700
O1132       O  0.32335909  0.73719584  0.59039419    -0.79100
O1133       O  0.27666815  0.68705722  0.64152448    -0.66700
Ni1134     Ni  0.38916585  0.67456845  0.67927777     1.34900
C1135       C  0.26606239  0.66243099  0.66750689     0.84400
O1136       O  0.40835189  0.74846344  0.63686502    -0.79700
O1137       O  0.41502277  0.72415997  0.69262588    -0.89900
C1138       C  0.35220011  0.75399596  0.57133735     0.84000
O1139       O  0.41691095  0.68304222  0.63131860    -0.68100
O1140       O  0.25494822  0.63818558  0.58173475    -0.87400
C1141       C  0.41180668  0.68456697  0.59386252     0.84800
C1142       C  0.42170183  0.75109549  0.67141159     1.06400
H1143       H  0.32599322  0.66592044  0.56845921     0.38200
O1144       O  0.32227914  0.67377760  0.59420017    -1.10100
O1145       O  0.27915563  0.64326740  0.66913734    -0.66700
Ni1146     Ni  0.31226952  0.63869278  0.63439991     1.26300
O1147       O  0.38965262  0.69198493  0.58211122    -0.67000
O1148       O  0.27167743  0.60216089  0.60563592    -0.79200
C1149       C  0.33507433  0.60361094  0.68266343     0.84200
O1150       O  0.30851452  0.60488153  0.67434322    -0.66400
Ni1151     Ni  0.28998819  0.68709089  0.58670718     1.27400
Ni1152     Ni  0.36543938  0.71053967  0.61413299     1.26100
H1153       H  0.34512064  0.68702461  0.68041611     0.38700
O1154       O  0.24716742  0.85260169  0.62570487    -0.81200
O1155       O  0.40876913  0.95631792  0.59150168    -0.65900
O1156       O  0.31605014  0.89359570  0.62910567    -1.12500
C1157       C  0.33512695  0.99573555  0.69205845     1.05700
O1158       O  0.41943582  0.96435380  0.65665701    -0.79100
O1159       O  0.36737662  0.93970261  0.71084533    -0.66700
Ni1160     Ni  0.28414766  0.85796912  0.59342142     1.34900
C1161       C  0.33580406  0.92254987  0.72170909     0.84400
O1162       O  0.36635684  0.88712159  0.58742471    -0.79700
O1163       O  0.31647398  0.85607032  0.55718197    -0.89900
C1164       C  0.43001990  0.96704268  0.62036636     0.84000
O1165       O  0.28574838  0.89406018  0.56208363    -0.68100
O1166       O  0.36326004  0.49710339  0.69826226    -0.87400
C1167       C  0.31234829  0.92176538  0.54744995     0.84800
C1168       C  0.34612963  0.86222215  0.56486776     1.06400
H1169       H  0.36368692  0.97842780  0.61360633     0.38200
O1170       O  0.35885391  0.96007556  0.63302164    -1.10100
O1171       O  0.31247384  0.92148508  0.70081079    -0.66700
Ni1172     Ni  0.31090496  0.93282883  0.64571580     1.26300
O1173       O  0.34364526  0.93242837  0.55816842    -0.67000
O1174       O  0.31212139  0.97429500  0.66678983    -0.79200
C1175       C  0.23956540  0.87211613  0.64495654     0.84200
O1176       O  0.26134224  0.90447863  0.65344509    -0.66400
Ni1177     Ni  0.38995612  0.97993826  0.67609901     1.27400
Ni1178     Ni  0.36173534  0.92394338  0.60833322     1.26100
H1179       H  0.31732882  0.88154908  0.65264214     0.38700
C1180       C  0.36665391  0.56977253  0.76397631     0.02800
C1181       C  0.35255356  0.53495877  0.75131693    -0.13300
C1182       C  0.33252670  0.52239324  0.71560155     0.00300
C1183       C  0.32191325  0.54303930  0.69663069    -0.11900
C1184       C  0.33388664  0.57726138  0.71053653     0.02800
C1185       C  0.35598424  0.59023450  0.74401930    -0.11300
H1186       H  0.36138681  0.51940176  0.76563753     0.08400
H1187       H  0.30905785  0.53484975  0.66779292     0.05900
H1188       H  0.36716320  0.61766538  0.75234042     0.05800
C1189       C  0.19236876  0.62378671  0.74882218     0.02800
C1190       C  0.22468775  0.63452673  0.72963984    -0.13300
C1191       C  0.23466028  0.65411292  0.69273565     0.00300
C1192       C  0.21189778  0.66328646  0.67632953    -0.11900
C1193       C  0.17939469  0.65166039  0.69423536     0.02800
C1194       C  0.16992060  0.63184681  0.73007308    -0.11300
H1195       H  0.24143681  0.62699884  0.74276739     0.08400
H1196       H  0.21872541  0.67836542  0.64831634     0.05900
H1197       H  0.14518892  0.62372604  0.74431592     0.05800
O1198       O  0.12470825  0.74633006  0.68113991    -0.81200
O1199       O  0.05667314  0.59252892  0.65519132    -0.65900
O1200       O  0.11478851  0.69157295  0.63555331    -1.12500
C1201       C  0.01513664  0.67468813  0.57494676     1.05700
O1202       O  0.05156893  0.59069633  0.58880616    -0.79100
O1203       O  0.07288831  0.64812185  0.54226602    -0.66700
Ni1204     Ni  0.14674047  0.72060816  0.67504775     1.34900
C1205       C  0.09150415  0.68141895  0.53746538     0.84400
O1206       O  0.12375129  0.64012173  0.67531050    -0.79700
O1207       O  0.16991299  0.69552134  0.67018632    -0.89900
C1208       C  0.04531442  0.57491039  0.62269301     0.84000
O1209       O  0.12077305  0.69198247  0.72085131    -0.68100
O1210       O  0.01476255  0.64722815  0.56307147    -0.87400
C1211       C  0.08804553  0.67401332  0.72458619     0.84800
C1212       C  0.15641551  0.66279069  0.67805377     1.06400
H1213       H  0.03270606  0.63882714  0.64179763     0.38200
O1214       O  0.05200185  0.64645978  0.62316695    -1.10100
O1215       O  0.09260161  0.70277187  0.56357542    -0.66700
Ni1216     Ni  0.07688395  0.69658208  0.61946772     1.26300
O1217       O  0.06976133  0.65090927  0.69851028    -0.67000
O1218       O  0.03661322  0.69660090  0.60093151    -0.79200
C1219       C  0.12315692  0.76339202  0.65164293     0.84200
O1220       O  0.10407608  0.74734277  0.62153076    -0.66400
Ni1221     Ni  0.03383254  0.61983392  0.57645750     1.27400
Ni1222     Ni  0.08706422  0.64255281  0.64842363     1.26100
H1223       H  0.12838247  0.69391020  0.61169887     0.38700
C1224       C  0.43401060  0.67791904  0.56487503     0.02800
C1225       C  0.46733976  0.68754477  0.57827992    -0.13300
C1226       C  0.48784124  0.67829998  0.55620663     0.00300
C1227       C  0.47629632  0.66160442  0.51879368    -0.11900
C1228       C  0.44229486  0.64682880  0.00709055     0.02800
C1229       C  0.42124498  0.65647372  0.52931159    -0.11300
H1230       H  0.47632722  0.69995744  0.60744180     0.08400
H1231       H  0.99272428  0.65551023  0.50124345     0.05900
H1232       H  0.39465689  0.64548227  0.52081758     0.05800
C1233       C  0.48484892  0.53387155  0.87435000     0.02800
C1234       C  0.46599248  0.99758649  0.86471926    -0.13300
C1235       C  0.48294279  0.97919595  0.85940462     0.00300
C1236       C  0.01888735  0.99752261  0.86313706    -0.11900
C1237       C  0.03785881  0.53329730  0.87367100     0.02800
C1238       C  0.02084839  0.55151982  0.87940452    -0.11300
H1239       H  0.43801290  0.98326371  0.86383220     0.08400
H1240       H  0.03203268  0.98333425  0.85994541     0.05900
H1241       H  0.03559170  0.57938884  0.88676505     0.05800
O1242       O  0.09112497  0.55641579  0.83996073    -0.81200
O1243       O  0.24536838  0.61839347  0.86869976    -0.65900
O1244       O  0.14780106  0.56006747  0.87371965    -1.12500
C1245       C  0.15833609  0.66143469  0.93624167     1.05700
O1246       O  0.24720914  0.63708568  0.93116423    -0.79100
O1247       O  0.19198744  0.62389238  0.97640355    -0.66700
Ni1248     Ni  0.12220914  0.54104399  0.82677286     1.34900
C1249       C  0.17205578  0.59024464  0.97810450     0.84400
O1250       O  0.20003353  0.54991388  0.84912062    -0.79700
O1251       O  0.15137583  0.52388978  0.81230424    -0.89900
C1252       C  0.26216790  0.63626702  0.89902110     0.84000
O1253       O  0.14758232  0.58109373  0.79179940    -0.68100
O1254       O  0.19080839  0.67604094  0.93238942    -0.87400
C1255       C  0.17991203  0.60229965  0.78701066     0.84800
C1256       C  0.17921259  0.52651471  0.82432322     1.06400
H1257       H  0.19159381  0.63926562  0.86739569     0.38200
O1258       O  0.18963967  0.62430181  0.88972568    -1.10100
O1259       O  0.14922541  0.57379009  0.95124222    -0.66700
Ni1260     Ni  0.14162364  0.59332351  0.90196840     1.26300
O1261       O  0.20122106  0.60567261  0.81365326    -0.67000
O1262       O  0.13683720  0.62831472  0.93100053    -0.79200
C1263       C  0.07570571  0.55142072  0.87400830     0.84200
O1264       O  0.09256544  0.56098808  0.90686890    -0.66400
Ni1265     Ni  0.21759984  0.65492819  0.93134684     1.27400
Ni1266     Ni  0.19665599  0.58841295  0.86911230     1.26100
H1267       H  0.14173303  0.54021338  0.89129836     0.38700
C1268       C  0.11362109  0.69496007  0.50058460     0.02800
C1269       C  0.12449004  0.67349702  0.98426044    -0.13300
C1270       C  0.14560936  0.68381961  0.95004115     0.00300
C1271       C  0.15634645  0.71633119  0.93134945    -0.11900
C1272       C  0.14480143  0.73825031  0.94573944     0.02800
C1273       C  0.12335163  0.72737198  0.98099102    -0.11300
H1274       H  0.11745582  0.64883279  0.99916170     0.06800
H1275       H  0.17271494  0.72377384  0.90441736     0.05900
H1276       H  0.11401872  0.74351819  0.99264287     0.05800
C1277       C  0.07235733  0.68295291  0.75872025     0.02800
C1278       C  0.03714625  0.66292677  0.77078692    -0.13300
C1279       C  0.02462893  0.67581475  0.80149673     0.00300
C1280       C  0.04746051  0.70829633  0.82017602    -0.11900
C1281       C  0.08240718  0.72731116  0.80929449     0.02800
C1282       C  0.09409708  0.71504214  0.77802511    -0.11300
H1283       H  0.01966604  0.63797199  0.75631667     0.08400
H1284       H  0.03846130  0.71760845  0.84480689     0.05900
H1285       H  0.12106600  0.73114345  0.76869583     0.05800
O1286       O  0.46653850  0.56475318  0.91650498    -0.81200
O1287       O  0.36323529  0.61239704  0.90789211    -0.65900
O1288       O  0.40570037  0.56051595  0.89956347    -1.12500
C1289       C  0.48855251  0.65519578  0.81675051     1.05700
O1290       O  0.37766701  0.63241463  0.84470123    -0.79100
O1291       O  0.41429769  0.62063215  0.79211566    -0.66700
Ni1292     Ni  0.42477828  0.55485572  0.94642309     1.34900
C1293       C  0.39561327  0.58717834  0.79379540     0.84400
O1294       O  0.34697807  0.54682576  0.93466829    -0.79700
O1295       O  0.38232833  0.54085970  0.97605556    -0.89900
C1296       C  0.36417147  0.63121530  0.87881779     0.84000
O1297       O  0.44590125  0.60333795  0.96604674    -0.68100
O1298       O  0.47398612  0.67180267  0.82692864    -0.87400
C1299       C  0.42941788  0.61851739  0.97493158     0.84800
C1300       C  0.35209058  0.53005472  0.96251532     1.06400
H1301       H  0.44223205  0.63802191  0.89663368     0.38200
O1302       O  0.42557909  0.62241268  0.87720027    -1.10100
O1303       O  0.40195359  0.56987751  0.81962691    -0.66700
Ni1304     Ni  0.43873641  0.59058843  0.86040277     1.26300
O1305       O  0.40174524  0.60943586  0.95715876    -0.67000
O1306       O  0.47357386  0.62175480  0.82079186    -0.79200
C1307       C  0.46649990  0.55252252  0.88114066     0.84200
O1308       O  0.45138265  0.55690591  0.85161438    -0.66400
Ni1309     Ni  0.42561019  0.65189779  0.83650069     1.27400
Ni1310     Ni  0.38437509  0.58616788  0.90577839     1.26100
H1311       H  0.38983470  0.53761208  0.88804578     0.38700
C1312       C  0.01113016  0.83410751  0.95384311     0.02800
C1313       C  0.02213636  0.85348166  0.98988852    -0.13300
C1314       C  0.05681627  0.87190384  0.49905243     0.00300
C1315       C  0.07807696  0.86192248  0.98039735    -0.11900
C1316       C  0.06608090  0.83785235  0.94823390     0.02800
C1317       C  0.03259438  0.82478018  0.93379207    -0.11300
H1318       H  0.00555401  0.86054245  0.50538400     0.08400
H1319       H  0.10508352  0.87516799  0.48846716     0.05900
H1320       H  0.02534674  0.81191226  0.90464538     0.05800
O1321       O  0.23363309  0.83072122  0.85198998    -0.81200
O1322       O  0.09501491  0.81109305  0.91739218    -0.65900
O1323       O  0.17212757  0.82972909  0.84973529    -1.12500
C1324       C  0.23435915  0.92248656  0.94365433     1.05700
O1325       O  0.11700905  0.86810737  0.90988585    -0.79100
O1326       O  0.17864315  0.92457796  0.89159424    -0.66700
Ni1327     Ni  0.18539209  0.79684898  0.84306486     1.34900
C1328       C  0.18241887  0.91984860  0.85449780     0.84400
O1329       O  0.10198995  0.77931115  0.84940629    -0.79700
O1330       O  0.13836445  0.76125303  0.83244973    -0.89900
C1331       C  0.09295892  0.83818327  0.92291620     0.84000
O1332       O  0.18053512  0.78272191  0.89820118    -0.68100
O1333       O  0.20537030  0.91390243  0.96022048    -0.87400
C1334       C  0.15365616  0.76999418  0.92049425     0.84800
C1335       C  0.10875396  0.75791920  0.83205677     1.06400
H1336       H  0.17303820  0.84587153  0.93851624     0.38200
O1337       O  0.16801253  0.85573630  0.91557848    -1.10100
O1338       O  0.18996910  0.89729646  0.84367996    -0.66700
Ni1339     Ni  0.20459886  0.87143305  0.87717068     1.26300
O1340       O  0.13329125  0.78136990  0.91835812    -0.67000
O1341       O  0.23709494  0.91293506  0.90786331    -0.79200
C1342       C  0.25099070  0.86117897  0.83551975     0.84200
O1343       O  0.24038361  0.88232976  0.83798053    -0.66400
Ni1344     Ni  0.16077251  0.89089650  0.93539554     1.27400
Ni1345     Ni  0.13315850  0.81734679  0.88397736     1.26100
H1346       H  0.16809629  0.83570567  0.82313668     0.38700
O1347       O  0.45983690  0.92855403  0.89950579    -0.81200
O1348       O  0.39680541  0.76738335  0.89533836    -0.65900
O1349       O  0.45464372  0.86628524  0.87377802    -1.12500
C1350       C  0.35365771  0.85033573  0.81563813     1.05700
O1351       O  0.37292387  0.75628424  0.83534806    -0.79100
O1352       O  0.38731695  0.80591814  0.78013258    -0.66700
Ni1353     Ni  0.47372264  0.89734782  0.91777820     1.34900
C1354       C  0.41907596  0.83006411  0.77449000     0.84400
O1355       O  0.46475238  0.81557190  0.90717284    -0.79700
O1356       O  0.48896906  0.86831461  0.93833132    -0.89900
C1357       C  0.37555992  0.74594178  0.86995726     0.84000
O1358       O  0.43418988  0.87593847  0.95293365    -0.68100
O1359       O  0.33930324  0.81718410  0.82015254    -0.87400
C1360       C  0.41474852  0.84346844  0.96156113     0.84800
C1361       C  0.48635607  0.83878482  0.93154717     1.06400
H1362       H  0.37726279  0.82256776  0.88689344     0.38200
O1363       O  0.39078166  0.82203304  0.86443924    -1.10100
O1364       O  0.43500681  0.85668749  0.79773683    -0.66700
Ni1365     Ni  0.42074174  0.86988701  0.84651159     1.26300
O1366       O  0.41291149  0.81951327  0.93944527    -0.67000
O1367       O  0.38582714  0.87257673  0.81949059    -0.79200
C1368       C  0.46387148  0.94044723  0.86373279     0.84200
O1369       O  0.45268959  0.91934936  0.83386267    -0.66400
Ni1370     Ni  0.35805608  0.78839885  0.82790220     1.27400
Ni1371     Ni  0.42677279  0.81687691  0.88541876     1.26100
H1372       H  0.47327931  0.87082029  0.85541173     0.38700
C1373       C  0.33255074  0.86412332  0.80391354     0.02800
C1374       C  0.34406359  0.88745870  0.77136062    -0.13300
C1375       C  0.32528050  0.90191970  0.75907948     0.00300
C1376       C  0.29544479  0.89453014  0.78095621    -0.11900
C1377       C  0.28375908  0.87133426  0.81432969     0.02800
C1378       C  0.30216298  0.85544919  0.82519467    -0.11300
H1379       H  0.36709962  0.89319640  0.75447858     0.08400
H1380       H  0.28081390  0.90587006  0.77124906     0.05900
H1381       H  0.29343303  0.83712932  0.85060629     0.05800
C1382       C  0.26614784  0.94263332  0.96756628     0.02800
C1383       C  0.27322912  0.92478246  0.49703072    -0.13300
C1384       C  0.30537525  0.94151811  0.51665017     0.00300
C1385       C  0.32985155  0.97694583  0.50722087    -0.11900
C1386       C  0.32315456  0.49549084  0.97787146     0.02800
C1387       C  0.29112413  0.97802601  0.95820529    -0.11300
H1388       H  0.25398270  0.89721395  0.50342447     0.08400
H1389       H  0.35458257  0.48976614  0.52205449     0.05900
H1390       H  0.28620475  0.99126576  0.93425381     0.05800
C1391       C  0.15026971  0.94963496  0.76503495     0.02800
C1392       C  0.15624830  0.92754086  0.79006288    -0.13300
C1393       C  0.17828703  0.94225981  0.82415379     0.00300
C1394       C  0.19056199  0.97785270  0.83424211    -0.11900
C1395       C  0.18481672  0.99909649  0.80842933     0.02800
C1396       C  0.17013738  0.98592356  0.77101578    -0.11300
H1397       H  0.14213401  0.89928061  0.78511954     0.08400
H1398       H  0.20193462  0.98800316  0.86349664     0.05900
H1399       H  0.16730149  0.50321980  0.75056814     0.05800
C1400       C  0.29942206  0.65514340  0.89678515     0.02800
C1401       C  0.31928008  0.69182600  0.88953181    -0.13300
C1402       C  0.35470041  0.70841283  0.88000391     0.00300
C1403       C  0.36964940  0.68838341  0.87743580    -0.11900
C1404       C  0.34931269  0.65200382  0.88447289     0.02800
C1405       C  0.31460795  0.63540671  0.89488102    -0.11300
H1406       H  0.30706070  0.70699950  0.88972561     0.08400
H1407       H  0.39680042  0.70087938  0.86911236     0.05900
H1408       H  0.29903395  0.60690248  0.89910964     0.05800
C1409       C  0.51755968  0.47918695  0.12679501     0.02800
C1410       C  0.53833477  0.01612005  0.12845821    -0.13300
C1411       C  0.52377193  0.03636814  0.12304200     0.00300
C1412       C  0.98849163  0.01978119  0.11497180    -0.11900
C1413       C  0.96723974  0.48282414  0.11422993     0.02800
C1414       C  0.98188796  0.46239393  0.12037195    -0.11300
H1415       H  0.56583389  0.02907612  0.13373845     0.08400
H1416       H  0.97715883  0.03566121  0.11170803     0.05900
H1417       H  0.96552499  0.43379145  0.12173824     0.05800
C1418       C  0.70251895  0.35585409  0.15380563     0.02800
C1419       C  0.68082406  0.31870050  0.15680635    -0.13300
C1420       C  0.64497518  0.30192539  0.15221462     0.00300
C1421       C  0.63063201  0.32209884  0.14626222    -0.11900
C1422       C  0.65198796  0.35889130  0.14454304     0.02800
C1423       C  0.68771797  0.37590081  0.14865429    -0.11300
H1424       H  0.69202097  0.30267861  0.15971773     0.08400
H1425       H  0.60298788  0.30916530  0.14202463     0.05900
H1426       H  0.70399806  0.40439338  0.14503763     0.05800
C1427       C  0.89338530  0.33239100  0.49862911     0.02800
C1428       C  0.88479959  0.30063184  0.01810728    -0.13300
C1429       C  0.86243603  0.28818944  0.05185936     0.00300
C1430       C  0.84851175  0.30793216  0.06593546    -0.11900
C1431       C  0.85785155  0.34017957  0.04728851     0.02800
C1432       C  0.88057051  0.35252653  0.01395310    -0.11300
H1433       H  0.89503539  0.28524244  0.00650613     0.08400
H1434       H  0.83115176  0.29878299  0.09209276     0.05900
H1435       H  0.88764741  0.37736559  0.49953882     0.05800
O1436       O  0.53352589  0.44765191  0.16840146    -0.81200
O1437       O  0.60893634  0.37071741  0.15452141    -0.65900
O1438       O  0.59198784  0.44417359  0.15353775    -1.12500
C1439       C  0.57176226  0.40339129  0.02515920     1.05700
O1440       O  0.65148904  0.40462851  0.11006592    -0.79100
O1441       O  0.65383180  0.46472682  0.08057230    -0.66700
Ni1442     Ni  0.57093094  0.45102317  0.19908229     1.34900
C1443       C  0.64199183  0.48425274  0.07268869     0.84400
O1444       O  0.61239398  0.41113868  0.21371914    -0.79700
O1445       O  0.60817536  0.45649053  0.23188213    -0.89900
C1446       C  0.63663619  0.37897262  0.13569656     0.84000
O1447       O  0.54099167  0.40253206  0.21509016    -0.68100
O1448       O  0.60452858  0.42250897  0.02706540    -0.87400
C1449       C  0.53053825  0.37410526  0.19564909     0.84800
C1450       C  0.62157805  0.43775116  0.23567423     1.06400
H1451       H  0.57192409  0.37652987  0.09783073     0.38200
O1452       O  0.58964513  0.40091376  0.10299728    -1.10100
O1453       O  0.60963293  0.47168236  0.07505447    -0.66700
Ni1454     Ni  0.57105698  0.42935353  0.10116211     1.26300
O1455       O  0.55042453  0.37142822  0.17003700    -0.67000
O1456       O  0.55281076  0.40947793  0.04875094    -0.79200
C1457       C  0.53410588  0.45926741  0.13288806     0.84200
O1458       O  0.55016836  0.45635223  0.10290497    -0.66400
Ni1459     Ni  0.62823058  0.41455719  0.06862982     1.27400
Ni1460     Ni  0.59960628  0.40621751  0.15768211     1.26100
H1461       H  0.61435760  0.46574485  0.15018682     0.38700
C1462       C  0.67828013  0.07140911  0.01211835     0.02800
C1463       C  0.65569318  0.03609711  0.02620309    -0.13300
C1464       C  0.66560300  0.02186375  0.05848636     0.00300
C1465       C  0.69767104  0.04410384  0.07771057    -0.11900
C1466       C  0.71977221  0.07927482  0.06433965     0.02800
C1467       C  0.71050853  0.09099376  0.03029140    -0.11300
H1468       H  0.63091921  0.01966843  0.01199831     0.08400
H1469       H  0.70454973  0.03455582  0.10376260     0.05900
H1470       H  0.72904415  0.11715722  0.01833737     0.05800
C1471       C  0.99351800  0.34454686  0.20386758     0.02800
C1472       C  0.97385373  0.35038635  0.23299880    -0.13300
C1473       C  0.93857734  0.32544045  0.24065350     0.00300
C1474       C  0.92276875  0.29374365  0.21898009    -0.11900
C1475       C  0.94126349  0.28646366  0.19057311     0.02800
C1476       C  0.97667670  0.31212259  0.18246413    -0.11300
H1477       H  0.98607911  0.37459876  0.25021910     0.08400
H1478       H  0.89578337  0.27376568  0.22498382     0.05900
H1479       H  0.99084690  0.30683461  0.16001339     0.05800
O1480       O  0.86433234  0.12552081  0.16666020    -0.81200
O1481       O  0.87206546  0.24202238  0.07054536    -0.65900
O1482       O  0.85300262  0.17853680  0.15851595    -1.12500
C1483       C  0.75061544  0.10754742  0.08610157     1.05700
O1484       O  0.82335458  0.23718780  0.09035117    -0.79100
O1485       O  0.77666015  0.18706043  0.14149967    -0.66700
Ni1486     Ni  0.88917694  0.17457975  0.17926597     1.34900
C1487       C  0.76606449  0.16244589  0.16749738     0.84400
O1488       O  0.90836903  0.24846917  0.13684262    -0.79700
O1489       O  0.91503609  0.22417015  0.19261053    -0.89900
C1490       C  0.85220312  0.25398995  0.07130921     0.84000
O1491       O  0.91692205  0.18305514  0.13130681    -0.68100
O1492       O  0.75494606  0.13817701  0.08172909    -0.87400
C1493       C  0.91181208  0.18457027  0.09385073     0.84800
C1494       C  0.92171949  0.25110405  0.17139074     1.06400
H1495       H  0.82599526  0.16591578  0.06845559     0.38200
O1496       O  0.82228219  0.17377889  0.09419289    -1.10100
O1497       O  0.77916362  0.14328709  0.16913675    -0.66700
Ni1498     Ni  0.81227457  0.13870176  0.13440072     1.26300
O1499       O  0.88965364  0.19198111  0.08209833    -0.67000
O1500       O  0.77167967  0.10216110  0.10564253    -0.79200
C1501       C  0.83508502  0.10362593  0.18266401     0.84200
O1502       O  0.80852513  0.10489916  0.17435187    -0.66400
Ni1503     Ni  0.78998562  0.18708276  0.08668518     1.27400
Ni1504     Ni  0.86544792  0.21054433  0.11411846     1.26100
H1505       H  0.84513488  0.18704219  0.18040589     0.38700
O1506       O  0.74715242  0.35261430  0.12562764    -0.81200
O1507       O  0.90877127  0.45633998  0.09150579    -0.65900
O1508       O  0.81604860  0.39359125  0.12909318    -1.12500
C1509       C  0.83512029  0.49572627  0.19206430     1.05700
O1510       O  0.91942689  0.46434361  0.15666203    -0.79100
O1511       O  0.86737203  0.43970058  0.21084501    -0.66700
Ni1512     Ni  0.78414904  0.35795799  0.09340557     1.34900
C1513       C  0.83579987  0.42254435  0.22170792     0.84400
O1514       O  0.86638273  0.38715120  0.08740740    -0.79700
O1515       O  0.81647843  0.35602360  0.05721884    -0.89900
C1516       C  0.93001682  0.46704708  0.12037286     0.84000
O1517       O  0.78577346  0.39403936  0.06202308    -0.68100
O1518       O  0.86326163  0.99710657  0.19826465    -0.87400
C1519       C  0.81236992  0.42176579  0.04742143     0.84800
C1520       C  0.84615319  0.36222267  0.06488462     1.06400
H1521       H  0.86367654  0.47842754  0.11361647     0.38200
O1522       O  0.85884655  0.46007292  0.13302670    -1.10100
O1523       O  0.81246604  0.42146838  0.20080715    -0.66700
Ni1524     Ni  0.81089782  0.43281897  0.14571712     1.26300
O1525       O  0.84366394  0.43245125  0.05816791    -0.67000
O1526       O  0.81210932  0.47427887  0.16680440    -0.79200
C1527       C  0.73955629  0.37211701  0.14491376     0.84200
O1528       O  0.76133783  0.40446601  0.15344752    -0.66400
Ni1529     Ni  0.88995191  0.47993430  0.17610011     1.27400
Ni1530     Ni  0.86174013  0.42395375  0.10832932     1.26100
H1531       H  0.81732890  0.38154380  0.15262772     0.38700
C1532       C  0.86664746  0.06977118  0.26398484     0.02800
C1533       C  0.85254778  0.03495934  0.25131920    -0.13300
C1534       C  0.83253097  0.02240242  0.21559614     0.00300
C1535       C  0.82192488  0.04305410  0.19662357    -0.11900
C1536       C  0.83389730  0.07727437  0.21053437     0.02800
C1537       C  0.85598752  0.09024057  0.24402370    -0.11300
H1538       H  0.86137517  0.01939788  0.26564158     0.08400
H1539       H  0.80907489  0.03486958  0.16778236     0.05900
H1540       H  0.86716726  0.11767084  0.25234829     0.05800
C1541       C  0.69237978  0.12381111  0.24883216     0.02800
C1542       C  0.72469827  0.13455293  0.22964520    -0.13300
C1543       C  0.73466618  0.15413417  0.19273611     0.00300
C1544       C  0.71189989  0.16330475  0.17633338    -0.11900
C1545       C  0.67939544  0.15167395  0.19424019     0.02800
C1546       C  0.66992552  0.13186238  0.23007947    -0.11300
H1547       H  0.74145013  0.12702877  0.24277244     0.08400
H1548       H  0.71872467  0.17838324  0.14832020     0.05900
H1549       H  0.64519245  0.12373777  0.24432126     0.05800
O1550       O  0.62471683  0.24635316  0.18113617    -0.81200
O1551       O  0.55666730  0.09253586  0.15521398    -0.65900
O1552       O  0.61478142  0.19158101  0.13556149    -1.12500
C1553       C  0.51513350  0.17469176  0.07496090     1.05700
O1554       O  0.55157168  0.09070588  0.08883000    -0.79100
O1555       O  0.57288721  0.14812788  0.04229423    -0.66700
Ni1556     Ni  0.64674031  0.22062213  0.17504648     1.34900
C1557       C  0.59149573  0.18142399  0.03748306     0.84400
O1558       O  0.62374771  0.14013128  0.17532160    -0.79700
O1559       O  0.66990823  0.19553012  0.17018752    -0.89900
C1560       C  0.54531428  0.07491744  0.12271483     0.84000
O1561       O  0.62077034  0.19200521  0.22085415    -0.68100
O1562       O  0.51475756  0.14722879  0.06309519    -0.87400
C1563       C  0.58804211  0.17403521  0.22458631     0.84800
C1564       C  0.65641223  0.16280065  0.17805967     1.06400
H1565       H  0.53269826  0.13883282  0.14181844     0.38200
O1566       O  0.55199414  0.14646554  0.12318765    -1.10100
O1567       O  0.59258877  0.20277857  0.06358706    -0.66700
Ni1568     Ni  0.57687504  0.19658806  0.11948143     1.26300
O1569       O  0.56975930  0.15092108  0.19852041    -0.67000
O1570       O  0.53660561  0.19660567  0.10094704    -0.79200
C1571       C  0.62315175  0.26340425  0.15163636     0.84200
O1572       O  0.60406275  0.24734629  0.12153446    -0.66400
Ni1573     Ni  0.53382961  0.11983793  0.07648146     1.27400
Ni1574     Ni  0.58705854  0.14256050  0.14843830     1.26100
H1575       H  0.62837181  0.19391561  0.11170473     0.38700
C1576       C  0.93401555  0.17792124  0.06486571     0.02800
C1577       C  0.96734594  0.18755567  0.07827107    -0.13300
C1578       C  0.98784661  0.17830622  0.05620726     0.00300
C1579       C  0.97630528  0.16160455  0.01879700    -0.11900
C1580       C  0.94230374  0.14682298  0.50709340     0.02800
C1581       C  0.92125059  0.15646699  0.02930878    -0.11300
H1582       H  0.97633411  0.19997607  0.10742925     0.08400
H1583       H  0.49273481  0.15550838  0.00125320     0.05900
H1584       H  0.89466139  0.14546959  0.02081547     0.05800
C1585       C  0.98486457  0.03387126  0.37434174     0.02800
C1586       C  0.96597129  0.49758453  0.36473584    -0.13300
C1587       C  0.98292110  0.47919482  0.35940701     0.00300
C1588       C  0.51886687  0.49752258  0.36312741    -0.11900
C1589       C  0.53787366  0.03329609  0.37368655     0.02800
C1590       C  0.52086162  0.05151756  0.37941401    -0.11300
H1591       H  0.93799109  0.48326194  0.36386054     0.08400
H1592       H  0.53201055  0.48333319  0.35992966     0.05900
H1593       H  0.53560248  0.07938479  0.38678332     0.05800
O1594       O  0.59114670  0.05644948  0.33998475    -0.81200
O1595       O  0.74537210  0.11839259  0.36873267    -0.65900
O1596       O  0.64780592  0.06006589  0.37372212    -1.12500
C1597       C  0.65831181  0.16141485  0.43625970     1.05700
O1598       O  0.74719361  0.13707703  0.43120127    -0.79100
O1599       O  0.69195602  0.12387575  0.47642663    -0.66700
Ni1600     Ni  0.62221986  0.04106913  0.32677155     1.34900
C1601       C  0.67204447  0.09022529  0.47811761     0.84400
O1602       O  0.70003191  0.04990927  0.34912074    -0.79700
O1603       O  0.65138372  0.02391135  0.31228418    -0.89900
C1604       C  0.76216158  0.13625752  0.39906520     0.84000
O1605       O  0.64759527  0.08113561  0.29182460    -0.68100
O1606       O  0.69078460  0.17602771  0.43240183    -0.87400
C1607       C  0.67992564  0.10232528  0.28702478     0.84800
C1608       C  0.67921024  0.02651721  0.32431473     1.06400
H1609       H  0.69158732  0.13926076  0.36741424     0.38200
O1610       O  0.68963579  0.12429633  0.38974215    -1.10100
O1611       O  0.64922899  0.07376618  0.45124436    -0.66700
Ni1612     Ni  0.64162165  0.09330966  0.40198784     1.26300
O1613       O  0.70123418  0.10567858  0.31365855    -0.67000
O1614       O  0.63682242  0.12828972  0.43103613    -0.79200
C1615       C  0.57571818  0.05142275  0.37403099     0.84200
O1616       O  0.59257030  0.06096518  0.40689535    -0.66400
Ni1617     Ni  0.71758106  0.15491760  0.43137423     1.27400
Ni1618     Ni  0.69665871  0.08841170  0.36912145     1.26100
H1619       H  0.64173544  0.04020402  0.39128851     0.38700
C1620       C  0.61360663  0.19495891  0.00059545     0.02800
C1621       C  0.62447451  0.17349261  0.48428010    -0.13300
C1622       C  0.64557713  0.18379927  0.45004690     0.00300
C1623       C  0.65630275  0.21630337  0.43133854    -0.11900
C1624       C  0.64476822  0.23823197  0.44572983     0.02800
C1625       C  0.62332758  0.22736313  0.48099035    -0.11300
H1626       H  0.61745237  0.14883770  0.49919596     0.06800
H1627       H  0.67266135  0.22373746  0.40439880     0.05900
H1628       H  0.61399792  0.24351271  0.49264051     0.05800
C1629       C  0.57234815  0.18297761  0.25870842     0.02800
C1630       C  0.53713927  0.16293865  0.27078183    -0.13300
C1631       C  0.52461757  0.17581612  0.30149777     0.00300
C1632       C  0.54744458  0.20829660  0.32018218    -0.11900
C1633       C  0.58238823  0.22732608  0.30928675     0.02800
C1634       C  0.59407930  0.21507389  0.27800168    -0.11300
H1635       H  0.51966456  0.13798094  0.25631389     0.08400
H1636       H  0.53844502  0.21759752  0.34482467     0.05900
H1637       H  0.62104470  0.23118789  0.26866092     0.05800
O1638       O  0.96655077  0.06475008  0.41649900    -0.81200
O1639       O  0.86324544  0.11239170  0.40793336    -0.65900
O1640       O  0.90570470  0.06050569  0.39956790    -1.12500
C1641       C  0.98854183  0.15518942  0.31675095     1.05700
O1642       O  0.87765848  0.13241166  0.34474302    -0.79100
O1643       O  0.91428129  0.12062515  0.29213698    -0.66700
Ni1644     Ni  0.92479018  0.05484819  0.44642297     1.34900
C1645       C  0.89560217  0.08717119  0.29380951     0.84400
O1646       O  0.84698682  0.04682110  0.43468513    -0.79700
O1647       O  0.88233673  0.04084136  0.47605982    -0.89900
C1648       C  0.86417217  0.13121097  0.37886745     0.84000
O1649       O  0.94591417  0.10333195  0.46604950    -0.68100
O1650       O  0.97397284  0.17179258  0.32693388    -0.87400
C1651       C  0.92942901  0.11850870  0.47493873     0.84800
C1652       C  0.85209779  0.03004621  0.46252708     1.06400
H1653       H  0.94223549  0.13801135  0.39664277     0.38200
O1654       O  0.92557943  0.12240265  0.37721169    -1.10100
O1655       O  0.90194756  0.06986796  0.31963261    -0.66700
Ni1656     Ni  0.93873595  0.09057909  0.36040354     1.26300
O1657       O  0.90175310  0.10942155  0.45717365    -0.67000
O1658       O  0.97356720  0.12174823  0.32078792    -0.79200
C1659       C  0.96651109  0.05251924  0.38113407     0.84200
O1660       O  0.95138751  0.05689856  0.35161065    -0.66400
Ni1661     Ni  0.92560033  0.15188949  0.33652311     1.27400
Ni1662     Ni  0.88438051  0.08615919  0.40579491     1.26100
H1663       H  0.88983739  0.03760164  0.38805189     0.38700
C1664       C  0.51111262  0.33410066  0.45385971     0.02800
C1665       C  0.52212451  0.35348259  0.48990127    -0.13300
C1666       C  0.55680863  0.37191443  0.99905625     0.00300
C1667       C  0.57806733  0.36192984  0.48040065    -0.11900
C1668       C  0.56607005  0.33785680  0.44824011     0.02800
C1669       C  0.53257904  0.32477653  0.43380609    -0.11300
H1670       H  0.50554261  0.36054264  0.00540163     0.08400
H1671       H  0.60507691  0.37518399  0.98846253     0.05900
H1672       H  0.52532841  0.31190442  0.40466200     0.05800
O1673       O  0.73362238  0.33070840  0.35196749    -0.81200
O1674       O  0.59500392  0.31109789  0.41739083    -0.65900
O1675       O  0.67211640  0.32973022  0.34972915    -1.12500
C1676       C  0.73436280  0.42247729  0.44365352     1.05700
O1677       O  0.61700407  0.36811399  0.40989949    -0.79100
O1678       O  0.67863590  0.42458020  0.39160788    -0.66700
Ni1679     Ni  0.68537310  0.29684229  0.34305785     1.34900
C1680       C  0.68241754  0.41985603  0.35451190     0.84400
O1681       O  0.60197607  0.27932256  0.34940125    -0.79700
O1682       O  0.63834158  0.26125155  0.33245175    -0.89900
C1683       C  0.59294985  0.33818856  0.42292160     0.84000
O1684       O  0.68051471  0.28271084  0.39819603    -0.68100
O1685       O  0.70537551  0.41390112  0.46021923    -0.87400
C1686       C  0.65363259  0.26998235  0.42048575     0.84800
C1687       C  0.60873501  0.25792653  0.33205466     1.06400
H1688       H  0.67302910  0.34586525  0.43851273     0.38200
O1689       O  0.66800622  0.35573453  0.41557721    -1.10100
O1690       O  0.68997443  0.39730904  0.34369040    -0.66700
Ni1691     Ni  0.70459303  0.37142794  0.37716898     1.26300
O1692       O  0.63327321  0.28136545  0.41835001    -0.67000
O1693       O  0.73709617  0.41291848  0.40786669    -0.79200
C1694       C  0.75098617  0.36117372  0.33551363     0.84200
O1695       O  0.74037773  0.38232342  0.33797758    -0.66400
Ni1696     Ni  0.66077187  0.39089653  0.43540371     1.27400
Ni1697     Ni  0.63314794  0.31735083  0.38397427     1.26100
H1698       H  0.66808794  0.33571150  0.32313151     0.38700
O1699       O  0.95983326  0.42855511  0.39950406    -0.81200
O1700       O  0.89679698  0.26737577  0.39532754    -0.65900
O1701       O  0.95463872  0.36627912  0.37376510    -1.12500
C1702       C  0.85366050  0.35033830  0.31562265     1.05700
O1703       O  0.87288882  0.25625327  0.33534902    -0.79100
O1704       O  0.88732722  0.30589767  0.28012351    -0.66700
Ni1705     Ni  0.97370265  0.39733546  0.41777750     1.34900
C1706       C  0.91907862  0.33006186  0.27447151     0.84400
O1707       O  0.96474345  0.31556370  0.40716928    -0.79700
O1708       O  0.98893151  0.36829199  0.43835253    -0.89900
C1709       C  0.87554071  0.24592549  0.36996064     0.84000
O1710       O  0.93415193  0.37592833  0.45289583    -0.68100
O1711       O  0.83931090  0.31718456  0.32010095    -0.87400
C1712       C  0.91472717  0.34346031  0.46153402     0.84800
C1713       C  0.98633182  0.33876951  0.43156200     1.06400
H1714       H  0.87725329  0.32255471  0.38687213     0.38200
O1715       O  0.89077516  0.32202342  0.36441929    -1.10100
O1716       O  0.93500008  0.35669193  0.29771367    -0.66700
Ni1717     Ni  0.92073687  0.36988252  0.34650253     1.26300
O1718       O  0.91290253  0.31950667  0.43942718    -0.67000
O1719       O  0.88582497  0.37258164  0.31949930    -0.79200
C1720       C  0.96385579  0.44044581  0.36373264     0.84200
O1721       O  0.95268039  0.41934816  0.33386226    -0.66400
Ni1722     Ni  0.85804910  0.28838959  0.32787835     1.27400
Ni1723     Ni  0.92676568  0.31686853  0.38540401     1.26100
H1724       H  0.97327655  0.37081807  0.35540041     0.38700
C1725       C  0.83255450  0.36412803  0.30390977     0.02800
C1726       C  0.84406635  0.38746312  0.27135871    -0.13300
C1727       C  0.82528243  0.40192300  0.25908161     0.00300
C1728       C  0.79544952  0.39453658  0.28096203    -0.11900
C1729       C  0.78376294  0.37133895  0.31433392     0.02800
C1730       C  0.80216907  0.35545539  0.32519698    -0.11300
H1731       H  0.86710021  0.39319855  0.25447266     0.08400
H1732       H  0.78081824  0.40587590  0.27125459     0.05900
H1733       H  0.79343984  0.33713404  0.35060693     0.05800
C1734       C  0.76615454  0.44262672  0.46755918     0.02800
C1735       C  0.77324508  0.42478007  0.99701289    -0.13300
C1736       C  0.80539278  0.44152019  0.01662834     0.00300
C1737       C  0.82986119  0.47695207  0.00720415    -0.11900
C1738       C  0.82315435  0.99548740  0.47788370     0.02800
C1739       C  0.79112440  0.47802111  0.45819815    -0.11300
H1740       H  0.75400362  0.39720946  0.00340289     0.08400
H1741       H  0.85457093  0.98975796  0.02207167     0.05900
H1742       H  0.78619841  0.49125878  0.43425066     0.05800
C1743       C  0.65026675  0.44964569  0.26505232     0.02800
C1744       C  0.65623232  0.42754698  0.29009018    -0.13300
C1745       C  0.67828396  0.44226689  0.32417077     0.00300
C1746       C  0.69057432  0.47786360  0.33425107    -0.11900
C1747       C  0.68483329  0.49910774  0.30843546     0.02800
C1748       C  0.67015120  0.48593472  0.27102247    -0.11300
H1749       H  0.64210439  0.39928498  0.28515797     0.08400
H1750       H  0.70195280  0.48801657  0.36350288     0.05900
H1751       H  0.66728006  0.00320584  0.25056636     0.05800
C1752       C  0.79941719  0.15513420  0.39684574     0.02800
C1753       C  0.81926943  0.19181240  0.38956338    -0.13300
C1754       C  0.85468804  0.20839991  0.38002829     0.00300
C1755       C  0.86964223  0.18837473  0.37747893    -0.11900
C1756       C  0.84931245  0.15199823  0.38454065     0.02800
C1757       C  0.81460939  0.13540150  0.39496540    -0.11300
H1758       H  0.80704558  0.20698152  0.38973847     0.08400
H1759       H  0.89679095  0.20087047  0.36914384     0.05900
H1760       H  0.79903914  0.10689900  0.39921071     0.05800
C1761       C  0.51755879  0.47918279  0.62680150     0.02800
C1762       C  0.53833396  0.01611996  0.62845804    -0.13300
C1763       C  0.52377033  0.03636752  0.62304327     0.00300
C1764       C  0.98849010  0.01978007  0.61497221    -0.11900
C1765       C  0.96724002  0.48282091  0.61423241     0.02800
C1766       C  0.98188709  0.46239012  0.62037842    -0.11300
H1767       H  0.56583308  0.02907641  0.63373849     0.08400
H1768       H  0.97715672  0.03565957  0.61170870     0.05900
H1769       H  0.96552343  0.43378773  0.62174706     0.05800
C1770       C  0.70252071  0.35585222  0.65380395     0.02800
C1771       C  0.68082585  0.31869860  0.65680302    -0.13300
C1772       C  0.64497677  0.30192419  0.65221581     0.00300
C1773       C  0.63063380  0.32209811  0.64626571    -0.11900
C1774       C  0.65198995  0.35889050  0.64454520     0.02800
C1775       C  0.68772007  0.37589956  0.64865474    -0.11300
H1776       H  0.69202253  0.30267627  0.65971159     0.08400
H1777       H  0.60298939  0.30916485  0.64203078     0.05900
H1778       H  0.70400030  0.40439220  0.64503878     0.05800
C1779       C  0.89338723  0.33239297  0.99863235     0.02800
C1780       C  0.88479789  0.30062998  0.51810390    -0.13300
C1781       C  0.86243518  0.28818807  0.55185662     0.00300
C1782       C  0.84851204  0.30793137  0.56593412    -0.11900
C1783       C  0.85785139  0.34017863  0.54728716     0.02800
C1784       C  0.88056860  0.35252461  0.51395009    -0.11300
H1785       H  0.89503340  0.28524043  0.50650238     0.08400
H1786       H  0.83115310  0.29878268  0.59209240     0.05900
H1787       H  0.88764986  0.37736780  0.99954216     0.05800
O1788       O  0.53352429  0.44764608  0.66840625    -0.81200
O1789       O  0.60893783  0.37071596  0.65452466    -0.65900
O1790       O  0.59198775  0.44417098  0.65354154    -1.12500
C1791       C  0.57176142  0.40338959  0.52516301     1.05700
O1792       O  0.65148996  0.40462760  0.61006870    -0.79100
O1793       O  0.65383110  0.46472574  0.58057620    -0.66700
Ni1794     Ni  0.57093096  0.45102025  0.69908622     1.34900
C1795       C  0.64199059  0.48425126  0.57269278     0.84400
O1796       O  0.61239438  0.41113688  0.71372235    -0.79700
O1797       O  0.60817702  0.45648976  0.73188435    -0.89900
C1798       C  0.63663781  0.37897177  0.63569956     0.84000
O1799       O  0.54099371  0.40252938  0.71509576    -0.68100
O1800       O  0.60452778  0.42250724  0.52706925    -0.87400
C1801       C  0.53053865  0.37410339  0.69565246     0.84800
C1802       C  0.62157965  0.43775031  0.73567618     1.06400
H1803       H  0.57192420  0.37652745  0.59783416     0.38200
O1804       O  0.58964510  0.40091149  0.60300081    -1.10100
O1805       O  0.60963161  0.47168015  0.57505861    -0.66700
Ni1806     Ni  0.57105647  0.42935093  0.60116638     1.26300
O1807       O  0.55042470  0.37142591  0.67004035    -0.67000
O1808       O  0.55280988  0.40947573  0.54875529    -0.79200
C1809       C  0.53410471  0.45926305  0.63289363     0.84200
O1810       O  0.55016788  0.45634939  0.60291030    -0.66400
Ni1811     Ni  0.62823057  0.41455599  0.56863324     1.27400
Ni1812     Ni  0.59960662  0.40621533  0.65768554     1.26100
H1813       H  0.61435734  0.46574230  0.65019054     0.38700
C1814       C  0.67828269  0.07140816  0.51211563     0.02800
C1815       C  0.65569535  0.03609647  0.52620034    -0.13300
C1816       C  0.66560518  0.02186256  0.55848265     0.00300
C1817       C  0.69767369  0.04410194  0.57770626    -0.11900
C1818       C  0.71977519  0.07927300  0.56433575     0.02800
C1819       C  0.71051184  0.09099240  0.53028764    -0.11300
H1820       H  0.63092084  0.01966849  0.51199645     0.08400
H1821       H  0.70455216  0.03455354  0.60375812     0.05900
H1822       H  0.72904751  0.11715624  0.51833441     0.05800
C1823       C  0.99351708  0.34454685  0.70386840     0.02800
C1824       C  0.97385265  0.35038743  0.73299838    -0.13300
C1825       C  0.93857601  0.32544205  0.74065292     0.00300
C1826       C  0.92276690  0.29374572  0.71897846    -0.11900
C1827       C  0.94126132  0.28646556  0.69057122     0.02800
C1828       C  0.97667516  0.31212314  0.68246407    -0.11300
H1829       H  0.98607837  0.37459974  0.75021884     0.08400
H1830       H  0.89578142  0.27376799  0.72498192     0.05900
H1831       H  0.99084549  0.30683429  0.66001442     0.05800
O1832       O  0.86433690  0.12552436  0.66665809    -0.81200
O1833       O  0.87206497  0.24202146  0.57054216    -0.65900
O1834       O  0.85300238  0.17853724  0.65851371    -1.12500
C1835       C  0.75061696  0.10754551  0.58609978     1.05700
O1836       O  0.82335383  0.23718650  0.59034837    -0.79100
O1837       O  0.77666586  0.18706185  0.64150285    -0.66700
Ni1838     Ni  0.88917758  0.17458273  0.67926525     1.34900
C1839       C  0.76606643  0.16244424  0.66749686     0.84400
O1840       O  0.90836931  0.24846982  0.63683961    -0.79700
O1841       O  0.91503265  0.22417241  0.69261133    -0.89900
C1842       C  0.85220234  0.25398864  0.57130613     0.84000
O1843       O  0.91692454  0.18306145  0.63130671    -0.68100
O1844       O  0.75494413  0.13817421  0.58173293    -0.87400
C1845       C  0.91181267  0.18457240  0.59385027     0.84800
C1846       C  0.92171752  0.25110570  0.67138960     1.06400
H1847       H  0.82599513  0.16591624  0.56845210     0.38200
O1848       O  0.82228226  0.17377853  0.59419017    -1.10100
O1849       O  0.77916272  0.14328271  0.66913310    -0.66700
Ni1850     Ni  0.81227632  0.13870126  0.63439707     1.26300
O1851       O  0.88965255  0.19198030  0.58209676    -0.67000
O1852       O  0.77168347  0.10216016  0.60563698    -0.79200
C1853       C  0.83508956  0.10362767  0.68266042     0.84200
O1854       O  0.80852867  0.10489875  0.67434712    -0.66400
Ni1855     Ni  0.78998444  0.18708104  0.58668608     1.27400
Ni1856     Ni  0.86544765  0.21054440  0.61411585     1.26100
H1857       H  0.84513331  0.18704194  0.68040297     0.38700
O1858       O  0.74715483  0.35261271  0.62562859    -0.81200
O1859       O  0.90877149  0.45633635  0.59150920    -0.65900
O1860       O  0.81604884  0.39358999  0.62909467    -1.12500
C1861       C  0.83511675  0.49572352  0.69206458     1.05700
O1862       O  0.91942919  0.46434742  0.65666504    -0.79100
O1863       O  0.86737157  0.43969809  0.71084381    -0.66700
Ni1864     Ni  0.78415101  0.35795763  0.59340508     1.34900
C1865       C  0.83579974  0.42254312  0.72170801     0.84400
O1866       O  0.86638188  0.38714702  0.58741279    -0.79700
O1867       O  0.81648121  0.35602681  0.55721597    -0.89900
C1868       C  0.93001753  0.46704599  0.62037587     0.84000
O1869       O  0.78577414  0.39403859  0.56202421    -0.68100
O1870       O  0.86326564  0.99710795  0.69826353    -0.87400
C1871       C  0.81237122  0.42176375  0.54742167     0.84800
C1872       C  0.84615402  0.36222211  0.56488484     1.06400
H1873       H  0.86367679  0.47842593  0.61361620     0.38200
O1874       O  0.85884668  0.46007182  0.63302716    -1.10100
O1875       O  0.81246616  0.42146863  0.70080815    -0.66700
Ni1876     Ni  0.81089780  0.43281775  0.64571721     1.26300
O1877       O  0.84366494  0.43244824  0.55816894    -0.67000
O1878       O  0.81210758  0.47427733  0.66680254    -0.79200
C1879       C  0.73955791  0.37211533  0.64491359     0.84200
O1880       O  0.76133847  0.40446446  0.65344740    -0.66400
Ni1881     Ni  0.88995055  0.47993391  0.67610199     1.27400
Ni1882     Ni  0.86174019  0.42395136  0.60833212     1.26100
H1883       H  0.81732809  0.38154220  0.65262956     0.38700
C1884       C  0.86665490  0.06977623  0.76398170     0.02800
C1885       C  0.85255557  0.03496415  0.75131692    -0.13300
C1886       C  0.83253681  0.02240544  0.71559539     0.00300
C1887       C  0.82193002  0.04305628  0.69662231    -0.11900
C1888       C  0.83390310  0.07727712  0.71053133     0.02800
C1889       C  0.85599403  0.09024458  0.74402001    -0.11300
H1890       H  0.86138365  0.01940339  0.76563956     0.08400
H1891       H  0.80907876  0.03487049  0.66778192     0.05900
H1892       H  0.86717318  0.11767488  0.75234399     0.05800
C1893       C  0.69238438  0.12381687  0.74883388     0.02800
C1894       C  0.72470139  0.13455549  0.72964556    -0.13300
C1895       C  0.73466768  0.15413291  0.69273409     0.00300
C1896       C  0.71190053  0.16330161  0.67632911    -0.11900
C1897       C  0.67939743  0.15167423  0.69423834     0.02800
C1898       C  0.66993035  0.13186847  0.73008151    -0.11300
H1899       H  0.74145329  0.12703171  0.74277364     0.08400
H1900       H  0.71872403  0.17837654  0.64831338     0.05900
H1901       H  0.64519891  0.12374726  0.74432553     0.05800
O1902       O  0.62471733  0.24635198  0.68113938    -0.81200
O1903       O  0.55666631  0.09253529  0.65521528    -0.65900
O1904       O  0.61478130  0.19158039  0.63556312    -1.12500
C1905       C  0.51513350  0.17469201  0.57496255     1.05700
O1906       O  0.55156976  0.09070505  0.58883138    -0.79100
O1907       O  0.57288796  0.14812799  0.54229630    -0.66700
Ni1908     Ni  0.64674069  0.22062078  0.67504830     1.34900
C1909       C  0.59149635  0.18142411  0.53748484     0.84400
O1910       O  0.62374839  0.14013058  0.67532165    -0.79700
O1911       O  0.66990895  0.19552935  0.67018613    -0.89900
C1912       C  0.54531227  0.07491681  0.62271629     0.84000
O1913       O  0.62077136  0.19200156  0.72085548    -0.68100
O1914       O  0.51475868  0.14723002  0.56309557    -0.87400
C1915       C  0.58804319  0.17403329  0.72458832     0.84800
C1916       C  0.65641331  0.16279997  0.67805790     1.06400
H1917       H  0.53269788  0.13883230  0.64182000     0.38200
O1918       O  0.55199379  0.14646519  0.62318921    -1.10100
O1919       O  0.59258897  0.20277863  0.56358882    -0.66700
Ni1920     Ni  0.57687479  0.19658758  0.61948362     1.26300
O1921       O  0.56975935  0.15092056  0.69852173    -0.67000
O1922       O  0.53660502  0.19660529  0.60094971    -0.79200
C1923       C  0.62315230  0.26340316  0.65163934     0.84200
O1924       O  0.60406248  0.24734544  0.62153793    -0.66400
Ni1925     Ni  0.53382942  0.11983834  0.57648248     1.27400
Ni1926     Ni  0.58705829  0.14255987  0.64843943     1.26100
H1927       H  0.62837155  0.19391516  0.61170620     0.38700
C1928       C  0.93401565  0.17792206  0.56486612     0.02800
C1929       C  0.96734538  0.18755521  0.57827247    -0.13300
C1930       C  0.98784594  0.17830554  0.55620900     0.00300
C1931       C  0.97630449  0.16160369  0.51879864    -0.11900
C1932       C  0.94230407  0.14682241  0.00709310     0.02800
C1933       C  0.92125089  0.15646883  0.52930835    -0.11300
H1934       H  0.97633341  0.19997535  0.60743081     0.08400
H1935       H  0.49273382  0.15550707  0.50125526     0.05900
H1936       H  0.89466221  0.14547303  0.52081390     0.05800
C1937       C  0.98486695  0.03387251  0.87434041     0.02800
C1938       C  0.96596949  0.49758348  0.86473837    -0.13300
C1939       C  0.98291944  0.47919428  0.85940622     0.00300
C1940       C  0.51886522  0.49752220  0.86312280    -0.11900
C1941       C  0.53787592  0.03329739  0.87368609     0.02800
C1942       C  0.52086406  0.05151916  0.87941097    -0.11300
H1943       H  0.93798918  0.48326055  0.86386567     0.08400
H1944       H  0.53200887  0.48333299  0.85992174     0.05900
H1945       H  0.53560501  0.07938684  0.88677821     0.05800
O1946       O  0.59114990  0.05645576  0.83998393    -0.81200
O1947       O  0.74537374  0.11839241  0.86873507    -0.65900
O1948       O  0.64780719  0.06006856  0.87372040    -1.12500
C1949       C  0.65831423  0.16141741  0.93625945     1.05700
O1950       O  0.74719428  0.13707714  0.93120352    -0.79100
O1951       O  0.69195542  0.12387689  0.97642707    -0.66700
Ni1952     Ni  0.62222200  0.04107442  0.82676877     1.34900
C1953       C  0.67204354  0.09022630  0.97811842     0.84400
O1954       O  0.70003177  0.04991009  0.84911920    -0.79700
O1955       O  0.65138511  0.02391585  0.81227976    -0.89900
C1956       C  0.76216278  0.13625726  0.89906800     0.84000
O1957       O  0.64759910  0.08114221  0.79182464    -0.68100
O1958       O  0.69078696  0.17603028  0.93239990    -0.87400
C1959       C  0.67992966  0.10233094  0.78702586     0.84800
C1960       C  0.67921039  0.02651947  0.82431166     1.06400
H1961       H  0.69158999  0.13926283  0.86741484     0.38200
O1962       O  0.68963795  0.12429809  0.88974266    -1.10100
O1963       O  0.64922951  0.07376723  0.95124379    -0.66700
Ni1964     Ni  0.64162358  0.09331214  0.90198755     1.26300
O1965       O  0.70123753  0.10568226  0.81365941    -0.67000
O1966       O  0.63682492  0.12829209  0.93103715    -0.79200
C1967       C  0.57572053  0.05142560  0.87403020     0.84200
O1968       O  0.59257235  0.06096795  0.90689469    -0.66400
Ni1969     Ni  0.71758258  0.15491889  0.93137490     1.27400
Ni1970     Ni  0.69666006  0.08841305  0.86912143     1.26100
H1971       H  0.64173547  0.04020585  0.89128592     0.38700
C1972       C  0.61360696  0.19495870  0.50059649     0.02800
C1973       C  0.62447563  0.17349387  0.98427969    -0.13300
C1974       C  0.64557935  0.18380159  0.95004729     0.00300
C1975       C  0.65630442  0.21630567  0.93133948    -0.11900
C1976       C  0.64476889  0.23823334  0.94573105     0.02800
C1977       C  0.62332711  0.22736345  0.98099028    -0.11300
H1978       H  0.61745361  0.14883893  0.99919533     0.06800
H1979       H  0.67266339  0.22374055  0.90440000     0.05900
H1980       H  0.61399670  0.24351246  0.99264030     0.05800
C1981       C  0.57235072  0.18297706  0.75871074     0.02800
C1982       C  0.53714174  0.16294007  0.77078420    -0.13300
C1983       C  0.52462105  0.17581977  0.80149876     0.00300
C1984       C  0.54744894  0.20830076  0.82018104    -0.11900
C1985       C  0.58239273  0.22732754  0.80928680     0.02800
C1986       C  0.59408334  0.21507303  0.77800376    -0.11300
H1987       H  0.51966622  0.13798202  0.75631749     0.08400
H1988       H  0.53845000  0.21760367  0.84482210     0.05900
H1989       H  0.62104915  0.23118515  0.76866399     0.05800
O1990       O  0.96655088  0.06474729  0.91650159    -0.81200
O1991       O  0.86324593  0.11239130  0.90793363    -0.65900
O1992       O  0.90570653  0.06050663  0.89956767    -1.12500
C1993       C  0.98854590  0.15519376  0.81675429     1.05700
O1994       O  0.87766146  0.13241418  0.84474463    -0.79100
O1995       O  0.91428531  0.12063082  0.79213798    -0.66700
Ni1996     Ni  0.92479017  0.05484771  0.94642392     1.34900
C1997       C  0.89560833  0.08717665  0.79380816     0.84400
O1998       O  0.84698739  0.04682085  0.93468343    -0.79700
O1999       O  0.88233691  0.04084290  0.97606026    -0.89900
C2000       C  0.86417376  0.13121185  0.87886857     0.84000
O2001       O  0.94591510  0.10333190  0.96604913    -0.68100
O2002       O  0.97397665  0.17179667  0.82693758    -0.87400
C2003       C  0.92942953  0.11850813  0.97493885     0.84800
C2004       C  0.85209816  0.03004678  0.96252652     1.06400
H2005       H  0.94223686  0.13801266  0.89664559     0.38200
O2006       O  0.92558154  0.12240442  0.87721366    -1.10100
O2007       O  0.90195377  0.06987320  0.81963107    -0.66700
Ni2008     Ni  0.93873947  0.09058213  0.86040550     1.26300
O2009       O  0.90175322  0.10942046  0.95717442    -0.67000
O2010       O  0.97357228  0.12175289  0.82079272    -0.79200
C2011       C  0.96651328  0.05252003  0.88113496     0.84200
O2012       O  0.95139179  0.05690238  0.85161160    -0.66400
Ni2013     Ni  0.92560366  0.15189289  0.83652625     1.27400
Ni2014     Ni  0.88438170  0.08615957  0.90579485     1.26100
H2015       H  0.88983988  0.03760301  0.88805029     0.38700
C2016       C  0.51111103  0.33409750  0.95386294     0.02800
C2017       C  0.52212404  0.35347935  0.98990434    -0.13300
C2018       C  0.55680785  0.37191381  0.49905830     0.00300
C2019       C  0.57806872  0.36193263  0.98039558    -0.11900
C2020       C  0.56606983  0.33785708  0.94823759     0.02800
C2021       C  0.53257718  0.32477394  0.93380739    -0.11300
H2022       H  0.50554356  0.36054757  0.50539648     0.08400
H2023       H  0.60507450  0.37517845  0.48847134     0.05900
H2024       H  0.52532495  0.31190053  0.90466414     0.05800
O2025       O  0.73362485  0.33071110  0.85197353    -0.81200
O2026       O  0.59500278  0.31109663  0.91738945    -0.65900
O2027       O  0.67211832  0.32973064  0.84973212    -1.12500
C2028       C  0.73435940  0.42247874  0.94365731     1.05700
O2029       O  0.61700299  0.36811210  0.90989480    -0.79100
O2030       O  0.67863612  0.42457964  0.89160928    -0.66700
Ni2031     Ni  0.68537650  0.29684412  0.84306165     1.34900
C2032       C  0.68241716  0.41985478  0.85451350     0.84400
O2033       O  0.60197886  0.27932262  0.84940148    -0.79700
O2034       O  0.63834582  0.26125311  0.83245264    -0.89900
C2035       C  0.59294839  0.33818733  0.92291791     0.84000
O2036       O  0.68051659  0.28271382  0.89820031    -0.68100
O2037       O  0.70537118  0.41390019  0.96022256    -0.87400
C2038       C  0.65363342  0.26998393  0.92048831     0.84800
C2039       C  0.60873910  0.25792770  0.83205463     1.06400
H2040       H  0.67302769  0.34586487  0.93851580     0.38200
O2041       O  0.66800527  0.35573399  0.91557955    -1.10100
O2042       O  0.68997323  0.39730718  0.84369248    -0.66700
Ni2043     Ni  0.70459322  0.37142854  0.87717264     1.26300
O2044       O  0.63327316  0.28136572  0.91835164    -0.67000
O2045       O  0.73709409  0.41292011  0.90787077    -0.79200
C2046       C  0.75098780  0.36117558  0.83551769     0.84200
O2047       O  0.74037935  0.38232531  0.83798215    -0.66400
Ni2048     Ni  0.66076891  0.39089509  0.93540376     1.27400
Ni2049     Ni  0.63314854  0.31735058  0.88397528     1.26100
H2050       H  0.66809042  0.33571165  0.82313400     0.38700
O2051       O  0.95983639  0.42855663  0.89950519    -0.81200
O2052       O  0.89679709  0.26737657  0.89533167    -0.65900
O2053       O  0.95463936  0.36627941  0.87376681    -1.12500
C2054       C  0.85365950  0.35033726  0.81562466     1.05700
O2055       O  0.87288957  0.25625382  0.83535298    -0.79100
O2056       O  0.88732719  0.30589689  0.78012651    -0.66700
Ni2057     Ni  0.97370402  0.39733559  0.91777952     1.34900
C2058       C  0.91907780  0.33006254  0.77447266     0.84400
O2059       O  0.96474309  0.31556345  0.90717209    -0.79700
O2060       O  0.98893149  0.36829105  0.93835660    -0.89900
C2061       C  0.87554132  0.24592614  0.86996464     0.84000
O2062       O  0.93415276  0.37592971  0.95289719    -0.68100
O2063       O  0.83931049  0.31718358  0.82010234    -0.87400
C2064       C  0.91472840  0.34346186  0.96153661     0.84800
C2065       C  0.98633102  0.33876818  0.93156582     1.06400
H2066       H  0.87725356  0.32255526  0.88687517     0.38200
O2067       O  0.89077533  0.32202386  0.86442234    -1.10100
O2068       O  0.93499901  0.35669283  0.79771462    -0.66700
Ni2069     Ni  0.92073657  0.36988261  0.84650514     1.26300
O2070       O  0.91290345  0.31950789  0.93943018    -0.67000
O2071       O  0.88582349  0.37258141  0.81950411    -0.79200
C2072       C  0.96385576  0.44044582  0.86373340     0.84200
O2073       O  0.95267928  0.41934765  0.83386377    -0.66400
Ni2074     Ni  0.85804932  0.28838950  0.82788153     1.27400
Ni2075     Ni  0.92676584  0.31686894  0.88540690     1.26100
H2076       H  0.97327680  0.37081798  0.85540155     0.38700
C2077       C  0.83255325  0.36412605  0.80390976     0.02800
C2078       C  0.84406529  0.38746077  0.77135833    -0.13300
C2079       C  0.82528235  0.40192199  0.75908197     0.00300
C2080       C  0.79545044  0.39453738  0.78096373    -0.11900
C2081       C  0.78376344  0.37133948  0.81433556     0.02800
C2082       C  0.80216824  0.35545421  0.82519715    -0.11300
H2083       H  0.86709879  0.39319540  0.75447205     0.08400
H2084       H  0.78082028  0.40587825  0.77125740     0.05900
H2085       H  0.79343889  0.33713281  0.85060707     0.05800
C2086       C  0.76615077  0.44262975  0.96756336     0.02800
C2087       C  0.77324866  0.42477651  0.49700835    -0.13300
C2088       C  0.80539513  0.44151755  0.51662677     0.00300
C2089       C  0.82986275  0.47695012  0.50720484    -0.11900
C2090       C  0.82315504  0.99548789  0.97788279     0.02800
C2091       C  0.79112126  0.47802372  0.95820032    -0.11300
H2092       H  0.75400776  0.39720542  0.50339679     0.08400
H2093       H  0.85457133  0.98975624  0.52206981     0.05900
H2094       H  0.78619503  0.49126114  0.93425274     0.05800
C2095       C  0.65026889  0.44964504  0.76505300     0.02800
C2096       C  0.65623375  0.42754610  0.79009107    -0.13300
C2097       C  0.67828423  0.44226569  0.82417240     0.00300
C2098       C  0.69057383  0.47786205  0.83425327    -0.11900
C2099       C  0.68483427  0.49910659  0.80843667     0.02800
C2100       C  0.67015380  0.48593405  0.77102289    -0.11300
H2101       H  0.64210582  0.39928412  0.78515869     0.08400
H2102       H  0.70195079  0.48801454  0.86350584     0.05900
H2103       H  0.66727863  0.00320651  0.75056380     0.05800
C2104       C  0.79941851  0.15513427  0.89684916     0.02800
C2105       C  0.81927057  0.19181258  0.88956756    -0.13300
C2106       C  0.85468916  0.20840048  0.88003200     0.00300
C2107       C  0.86964349  0.18837547  0.87748123    -0.11900
C2108       C  0.84931388  0.15199885  0.88454235     0.02800
C2109       C  0.81461092  0.13540183  0.89496774    -0.11300
H2110       H  0.80704658  0.20698155  0.88974330     0.08400
H2111       H  0.89679214  0.20087143  0.86914570     0.05900
H2112       H  0.79904083  0.10689927  0.89921255     0.05800
C2113       C  0.51756731  0.97918890  0.12679716     0.02800
C2114       C  0.53833007  0.51611755  0.12844254    -0.13300
C2115       C  0.52376832  0.53636591  0.12302721     0.00300
C2116       C  0.98848652  0.51978053  0.11497008    -0.11900
C2117       C  0.96724572  0.98282425  0.11422270     0.02800
C2118       C  0.98189621  0.96239559  0.12036447    -0.11300
H2119       H  0.56583063  0.52907302  0.13371307     0.08400
H2120       H  0.97715456  0.53566147  0.11170777     0.05900
H2121       H  0.96553444  0.93379295  0.12172541     0.05800
C2122       C  0.70252737  0.85585043  0.15384894     0.02800
C2123       C  0.68083368  0.81869475  0.15684129    -0.13300
C2124       C  0.64498457  0.80191655  0.15224172     0.00300
C2125       C  0.63063912  0.82208828  0.14629936    -0.11900
C2126       C  0.65199120  0.85888048  0.14458322     0.02800
C2127       C  0.68772183  0.87589427  0.14870024    -0.11300
H2128       H  0.69203179  0.80267368  0.15974776     0.08400
H2129       H  0.60299532  0.80915235  0.14205732     0.05900
H2130       H  0.70399864  0.90438713  0.14508395     0.05800
C2131       C  0.89339178  0.83239693  0.49864859     0.02800
C2132       C  0.88480479  0.80063985  0.01813504    -0.13300
C2133       C  0.86242392  0.78819090  0.05187344     0.00300
C2134       C  0.84848013  0.80792430  0.06592325    -0.11900
C2135       C  0.85781227  0.84016558  0.04726212     0.02800
C2136       C  0.88054635  0.85251524  0.01393833    -0.11300
H2137       H  0.89505841  0.78526048  0.00655457     0.08400
H2138       H  0.83111459  0.79877573  0.09207543     0.05900
H2139       H  0.88762910  0.87735574  0.49952343     0.05800
O2140       O  0.53353128  0.94765264  0.16840684    -0.81200
O2141       O  0.60892659  0.87069340  0.15452693    -0.65900
O2142       O  0.59198383  0.94415428  0.15354127    -1.12500
C2143       C  0.57176595  0.90337727  0.02516297     1.05700
O2144       O  0.65148372  0.90459934  0.11007184    -0.79100
O2145       O  0.65383447  0.96470457  0.08057172    -0.66700
Ni2146     Ni  0.57093150  0.95101171  0.19908433     1.34900
C2147       C  0.64199531  0.98423231  0.07269113     0.84400
O2148       O  0.61238246  0.91111374  0.21372234    -0.79700
O2149       O  0.60817354  0.95647213  0.23187884    -0.89900
C2150       C  0.63663322  0.87895264  0.13571479     0.84000
O2151       O  0.54098404  0.90252125  0.21509217    -0.68100
O2152       O  0.60453131  0.92249238  0.02707324    -0.87400
C2153       C  0.53052793  0.87409151  0.19565566     0.84800
C2154       C  0.62157616  0.93773293  0.23566823     1.06400
H2155       H  0.57191715  0.87650959  0.09783500     0.38200
O2156       O  0.58963968  0.90089292  0.10300184    -1.10100
O2157       O  0.60963653  0.97166391  0.07506101    -0.66700
Ni2158     Ni  0.57105548  0.92933716  0.10116593     1.26300
O2159       O  0.55041204  0.87140978  0.17004315    -0.67000
O2160       O  0.55281241  0.90946270  0.04875343    -0.79200
C2161       C  0.53411258  0.95926662  0.13289217     0.84200
O2162       O  0.55017031  0.95634235  0.10290890    -0.66400
Ni2163     Ni  0.62822719  0.91453295  0.06863620     1.27400
Ni2164     Ni  0.59959697  0.90619437  0.15768649     1.26100
H2165       H  0.61435532  0.96572334  0.15019016     0.38700
C2166       C  0.67828884  0.57142545  0.01210634     0.02800
C2167       C  0.65569561  0.53611662  0.02619648    -0.13300
C2168       C  0.66560029  0.52188273  0.05848412     0.00300
C2169       C  0.69766777  0.54411899  0.07770938    -0.11900
C2170       C  0.71977599  0.57928564  0.06433175     0.02800
C2171       C  0.71051999  0.59100469  0.03027751    -0.11300
H2172       H  0.63092124  0.51969042  0.01199191     0.08400
H2173       H  0.70454139  0.53457128  0.10376641     0.05900
H2174       H  0.72906286  0.61716524  0.01832165     0.05800
C2175       C  0.99350701  0.84453490  0.20388200     0.02800
C2176       C  0.97384962  0.85037373  0.23302430    -0.13300
C2177       C  0.93857028  0.82543414  0.24067624     0.00300
C2178       C  0.92275577  0.79373742  0.21900355    -0.11900
C2179       C  0.94124643  0.78645445  0.19059397     0.02800
C2180       C  0.97665780  0.81211330  0.18247442    -0.11300
H2181       H  0.98608167  0.87458285  0.25025090     0.08400
H2182       H  0.89576973  0.77376274  0.22500958     0.05900
H2183       H  0.99082141  0.80682595  0.16001368     0.05800
O2184       O  0.86432466  0.62551100  0.16666593    -0.81200
O2185       O  0.87205947  0.74202564  0.07056476    -0.65900
O2186       O  0.85299216  0.67852493  0.15852405    -1.12500
C2187       C  0.75061698  0.60755408  0.08609690     1.05700
O2188       O  0.82335885  0.73719614  0.09039512    -0.79100
O2189       O  0.77666701  0.68705593  0.14152398    -0.66700
Ni2190     Ni  0.88916539  0.67456880  0.17927707     1.34900
C2191       C  0.76606162  0.66242970  0.16750629     0.84400
O2192       O  0.90835231  0.74846366  0.13686467    -0.79700
O2193       O  0.91502102  0.72415964  0.19262654    -0.89900
C2194       C  0.85219991  0.75399657  0.07133818     0.84000
O2195       O  0.91691143  0.68304403  0.13131846    -0.68100
O2196       O  0.75494854  0.63818537  0.08173242    -0.87400
C2197       C  0.91180689  0.68456802  0.09386235     0.84800
C2198       C  0.92170110  0.75109529  0.17141197     1.06400
H2199       H  0.82599343  0.66592143  0.06845852     0.38200
O2200       O  0.82227924  0.67377825  0.09419960    -1.10100
O2201       O  0.77915525  0.64326645  0.16913646    -0.66700
Ni2202     Ni  0.81226985  0.63869310  0.13439882     1.26300
O2203       O  0.88965252  0.69198545  0.08211077    -0.67000
O2204       O  0.77167858  0.60216124  0.10563366    -0.79200
C2205       C  0.83507554  0.60361200  0.18266198     0.84200
O2206       O  0.80851527  0.60488182  0.17434203    -0.66400
Ni2207     Ni  0.78998802  0.68709099  0.08670674     1.27400
Ni2208     Ni  0.86543946  0.71054028  0.11413264     1.26100
H2209       H  0.84512002  0.68702483  0.18041532     0.38700
O2210       O  0.74716846  0.85260337  0.12569983    -0.81200
O2211       O  0.90876946  0.95631764  0.09150301    -0.65900
O2212       O  0.81604982  0.89359609  0.12910407    -1.12500
C2213       C  0.83512317  0.99573427  0.19205803     1.05700
O2214       O  0.91943761  0.96435925  0.15665814    -0.79100
O2215       O  0.86737593  0.93970236  0.21084382    -0.66700
Ni2216     Ni  0.78414854  0.85797036  0.09341763     1.34900
C2217       C  0.83580349  0.92254995  0.22170821     0.84400
O2218       O  0.86635608  0.88712076  0.08742568    -0.79700
O2219       O  0.81647541  0.85607318  0.05717791    -0.89900
C2220       C  0.93002066  0.96704492  0.12036748     0.84000
O2221       O  0.78574919  0.89406086  0.06208040    -0.68100
O2222       O  0.86326421  0.49710691  0.19825990    -0.87400
C2223       C  0.81234948  0.92176588  0.04744760     0.84800
C2224       C  0.84612976  0.86222292  0.06486626     1.06400
H2225       H  0.86368670  0.97842824  0.11360528     0.38200
O2226       O  0.85885370  0.96007621  0.13302093    -1.10100
O2227       O  0.81247341  0.92148579  0.20081010    -0.66700
Ni2228     Ni  0.81090478  0.93282932  0.14571438     1.26300
O2229       O  0.84364616  0.93242879  0.05816752    -0.67000
O2230       O  0.81211948  0.97429485  0.16678732    -0.79200
C2231       C  0.73956672  0.87211749  0.14495275     0.84200
O2232       O  0.76134311  0.90447932  0.15344330    -0.66400
Ni2233     Ni  0.88995456  0.97993970  0.17609966     1.27400
Ni2234     Ni  0.86173523  0.92394347  0.10833330     1.26100
H2235       H  0.81732754  0.88154886  0.15264048     0.38700
C2236       C  0.86665924  0.56977710  0.26397433     0.02800
C2237       C  0.85255986  0.53496349  0.25131498    -0.13300
C2238       C  0.83253131  0.52239667  0.21560104     0.00300
C2239       C  0.82191608  0.54304142  0.19663095    -0.11900
C2240       C  0.83388934  0.57726367  0.21053586     0.02800
C2241       C  0.85598817  0.59023808  0.24401770    -0.11300
H2242       H  0.86139428  0.51940729  0.26563506     0.08400
H2243       H  0.80905927  0.53485074  0.16779410     0.05900
H2244       H  0.86716649  0.61766890  0.25233860     0.05800
C2245       C  0.69237154  0.62379103  0.24882610     0.02800
C2246       C  0.72468961  0.63452946  0.22964228    -0.13300
C2247       C  0.73465973  0.65411176  0.19273545     0.00300
C2248       C  0.71189567  0.66328270  0.17632798    -0.11900
C2249       C  0.67939386  0.65165898  0.19423614     0.02800
C2250       C  0.66992245  0.63184985  0.23007690    -0.11300
H2251       H  0.74143958  0.62700305  0.24277055     0.08400
H2252       H  0.71872148  0.67835858  0.14831267     0.05900
H2253       H  0.64519187  0.62373096  0.24432152     0.05800
O2254       O  0.62471136  0.74633238  0.18114075    -0.81200
O2255       O  0.55667125  0.59253150  0.15519283    -0.65900
O2256       O  0.61478994  0.69157457  0.13555456    -1.12500
C2257       C  0.51513922  0.67469213  0.07494497     1.05700
O2258       O  0.55156890  0.59069948  0.08880750    -0.79100
O2259       O  0.57288907  0.64812355  0.04226518    -0.66700
Ni2260     Ni  0.64674181  0.72060849  0.17504945     1.34900
C2261       C  0.59150645  0.68142053  0.03746448     0.84400
O2262       O  0.62375007  0.64012144  0.17531236    -0.79700
O2263       O  0.66991288  0.69552025  0.17018766    -0.89900
C2264       C  0.54531289  0.57491340  0.12269434     0.84000
O2265       O  0.62077385  0.69198262  0.22085328    -0.68100
O2266       O  0.51476480  0.64723199  0.06307019    -0.87400
C2267       C  0.58804635  0.67401363  0.22458893     0.84800
C2268       C  0.65641465  0.66278953  0.17805497     1.06400
H2269       H  0.53270740  0.63883197  0.14179713     0.38200
O2270       O  0.55200317  0.64646351  0.12316680    -1.10100
O2271       O  0.59260586  0.70277426  0.06357490    -0.66700
Ni2272     Ni  0.57688673  0.69658541  0.11946691     1.26300
O2273       O  0.56976144  0.65091158  0.19851154    -0.67000
O2274       O  0.53661677  0.69660565  0.10092873    -0.79200
C2275       C  0.62316038  0.76339440  0.15164325     0.84200
O2276       O  0.60408011  0.74734567  0.12153051    -0.66400
Ni2277     Ni  0.53383357  0.61983733  0.07645752     1.27400
Ni2278     Ni  0.58706406  0.64255472  0.14842491     1.26100
H2279       H  0.62838415  0.69391124  0.11170058     0.38700
C2280       C  0.93401078  0.67791981  0.06487520     0.02800
C2281       C  0.96734017  0.68754591  0.07827981    -0.13300
C2282       C  0.98784217  0.67830211  0.05620586     0.00300
C2283       C  0.97629615  0.66160497  0.01879366    -0.11900
C2284       C  0.94229509  0.64682843  0.50709030     0.02800
C2285       C  0.92124492  0.65647433  0.02931188    -0.11300
H2286       H  0.97632775  0.69995868  0.10744161     0.08400
H2287       H  0.49272394  0.65551065  0.00124315     0.05900
H2288       H  0.89465685  0.64548315  0.02081796     0.05800
C2289       C  0.98485036  0.53387241  0.37434863     0.02800
C2290       C  0.96599008  0.99758513  0.36472082    -0.13300
C2291       C  0.98294095  0.97919544  0.35940361     0.00300
C2292       C  0.51888542  0.99752251  0.36313336    -0.11900
C2293       C  0.53786030  0.53329845  0.37367320     0.02800
C2294       C  0.52084962  0.55152085  0.37940410    -0.11300
H2295       H  0.93801044  0.98326190  0.36383510     0.08400
H2296       H  0.53203102  0.98333470  0.35993819     0.05900
H2297       H  0.53559264  0.57939004  0.38676395     0.05800
O2298       O  0.59112820  0.55642214  0.33996401    -0.81200
O2299       O  0.74537011  0.61839397  0.36870414    -0.65900
O2300       O  0.64780240  0.56006954  0.37372228    -1.12500
C2301       C  0.65833784  0.66143670  0.43624489     1.05700
O2302       O  0.74720960  0.63708476  0.43116921    -0.79100
O2303       O  0.69198747  0.62389236  0.47640736    -0.66700
Ni2304     Ni  0.62221037  0.54104783  0.32677521     1.34900
C2305       C  0.67205423  0.59024469  0.47810910     0.84400
O2306       O  0.70003454  0.54991576  0.34911961    -0.79700
O2307       O  0.65137524  0.52389148  0.31230592    -0.89900
C2308       C  0.76216901  0.63626629  0.39902650     0.84000
O2309       O  0.64758532  0.58109743  0.29180213    -0.68100
O2310       O  0.69081026  0.67604250  0.43239310    -0.87400
C2311       C  0.67991502  0.60230426  0.28701461     0.84800
C2312       C  0.67921253  0.52651640  0.32432291     1.06400
H2313       H  0.69159583  0.63926731  0.36740100     0.38200
O2314       O  0.68964131  0.62430285  0.38973046    -1.10100
O2315       O  0.64922440  0.57379059  0.45124626    -0.66700
Ni2316     Ni  0.64162492  0.59332527  0.40197209     1.26300
O2317       O  0.70122379  0.60567750  0.31365767    -0.67000
O2318       O  0.63683879  0.62831668  0.43100415    -0.79200
C2319       C  0.57570745  0.55142351  0.37401116     0.84200
O2320       O  0.59256655  0.56099017  0.40687212    -0.66400
Ni2321     Ni  0.71760117  0.65492862  0.43135141     1.27400
Ni2322     Ni  0.69665750  0.58841441  0.36911509     1.26100
H2323       H  0.64173405  0.54021508  0.39130044     0.38700
C2324       C  0.61362238  0.69496029  0.00058270     0.02800
C2325       C  0.62449029  0.67349796  0.48426253    -0.13300
C2326       C  0.64561067  0.68382156  0.45004414     0.00300
C2327       C  0.65634686  0.71633296  0.43135257    -0.11900
C2328       C  0.64480148  0.73825154  0.44574338     0.02800
C2329       C  0.62335081  0.72737229  0.48099423    -0.11300
H2330       H  0.61745619  0.64883363  0.49916333     0.06800
H2331       H  0.67271526  0.72377616  0.40442034     0.05900
H2332       H  0.61401767  0.74351823  0.49264649     0.05800
C2333       C  0.57235908  0.68295206  0.25872516     0.02800
C2334       C  0.53714798  0.66292672  0.27079187    -0.13300
C2335       C  0.52463114  0.67581564  0.30150122     0.00300
C2336       C  0.54746304  0.70829687  0.32018021    -0.11900
C2337       C  0.58240972  0.72730985  0.30929980     0.02800
C2338       C  0.59409959  0.71504032  0.27803112    -0.11300
H2339       H  0.51966726  0.63797209  0.25632166     0.08400
H2340       H  0.53846413  0.71760991  0.34481044     0.05900
H2341       H  0.62106880  0.73114093  0.26870275     0.05800
O2342       O  0.96654022  0.56475386  0.41650448    -0.81200
O2343       O  0.86323452  0.61239447  0.40789354    -0.65900
O2344       O  0.90570152  0.56051537  0.39956369    -1.12500
C2345       C  0.98855506  0.65519746  0.31675530     1.05700
O2346       O  0.87766957  0.63241677  0.34470453    -0.79100
O2347       O  0.91430045  0.62063675  0.29211776    -0.66700
Ni2348     Ni  0.92477995  0.55485560  0.44642333     1.34900
C2349       C  0.89561747  0.58718270  0.29379488     0.84400
O2350       O  0.84697908  0.54682377  0.43466921    -0.79700
O2351       O  0.88232999  0.54085866  0.47605648    -0.89900
C2352       C  0.86417246  0.63121506  0.37882077     0.84000
O2353       O  0.94590218  0.60333784  0.46604689    -0.68100
O2354       O  0.97398907  0.67180450  0.32693480    -0.87400
C2355       C  0.92941821  0.61851663  0.47493200     0.84800
C2356       C  0.85209210  0.53005313  0.46251626     1.06400
H2357       H  0.94223244  0.63802075  0.39663693     0.38200
O2358       O  0.92557987  0.62241232  0.37720270    -1.10100
O2359       O  0.90195734  0.56988097  0.31962580    -0.66700
Ni2360     Ni  0.93873807  0.59058923  0.36040407     1.26300
O2361       O  0.90174498  0.60943398  0.45716004    -0.67000
O2362       O  0.97357609  0.62175652  0.32079516    -0.79200
C2363       C  0.96650143  0.55252331  0.38113996     0.84200
O2364       O  0.95138448  0.55690724  0.35161394    -0.66400
Ni2365     Ni  0.92561285  0.65189993  0.33650542     1.27400
Ni2366     Ni  0.88437552  0.58616644  0.40577944     1.26100
H2367       H  0.88983648  0.53761166  0.38804537     0.38700
C2368       C  0.51112827  0.83410300  0.45384479     0.02800
C2369       C  0.52213537  0.85347712  0.48989027    -0.13300
C2370       C  0.55681665  0.87190658  0.99905329     0.00300
C2371       C  0.57807688  0.86192102  0.48039460    -0.11900
C2372       C  0.56608011  0.83785052  0.44823178     0.02800
C2373       C  0.53259249  0.82477638  0.43379234    -0.11300
H2374       H  0.50555524  0.86054795  0.00538091     0.08400
H2375       H  0.60508314  0.87516827  0.98847186     0.05900
H2376       H  0.52534392  0.81190788  0.40464603     0.05800
O2377       O  0.73363416  0.83072084  0.35199369    -0.81200
O2378       O  0.59501444  0.81109172  0.41739156    -0.65900
O2379       O  0.67212838  0.82972749  0.34973806    -1.12500
C2380       C  0.73435700  0.92248580  0.44365772     1.05700
O2381       O  0.61700823  0.86810567  0.40988339    -0.79100
O2382       O  0.67864410  0.92457705  0.39159636    -0.66700
Ni2383     Ni  0.68539331  0.79684737  0.34307131     1.34900
C2384       C  0.68241893  0.91984703  0.35449994     0.84400
O2385       O  0.60199168  0.77931023  0.34940830    -0.79700
O2386       O  0.63836577  0.76125005  0.33245822    -0.89900
C2387       C  0.59295772  0.83818158  0.42291347     0.84000
O2388       O  0.68053767  0.78272630  0.39820977    -0.68100
O2389       O  0.70536754  0.91390014  0.46022365    -0.87400
C2390       C  0.65365687  0.76999606  0.42049988     0.84800
C2391       C  0.60875589  0.75791738  0.33206202     1.06400
H2392       H  0.67303730  0.84587052  0.43851868     0.38200
O2393       O  0.66801188  0.85573506  0.41558054    -1.10100
O2394       O  0.68996783  0.89729392  0.34368215    -0.66700
Ni2395     Ni  0.70459864  0.87143188  0.37717344     1.26300
O2396       O  0.63329047  0.78136960  0.41836114    -0.67000
O2397       O  0.73709357  0.91293454  0.40786663    -0.79200
C2398       C  0.75099034  0.86117754  0.33552078     0.84200
O2399       O  0.74038361  0.88232864  0.33798290    -0.66400
Ni2400     Ni  0.66077064  0.89089462  0.43539636     1.27400
Ni2401     Ni  0.63315882  0.81734580  0.38397891     1.26100
H2402       H  0.66809762  0.83570335  0.32313876     0.38700
O2403       O  0.95984189  0.92855568  0.39950647    -0.81200
O2404       O  0.89680473  0.76738302  0.39533967    -0.65900
O2405       O  0.95464401  0.86628454  0.37377774    -1.12500
C2406       C  0.85365693  0.85033501  0.31563743     1.05700
O2407       O  0.87292238  0.75628288  0.33534977    -0.79100
O2408       O  0.88731627  0.80591667  0.28013332    -0.66700
Ni2409     Ni  0.97372457  0.89734682  0.41777863     1.34900
C2410       C  0.91907456  0.83006406  0.27448936     0.84400
O2411       O  0.96475155  0.81557012  0.40717342    -0.79700
O2412       O  0.98896878  0.86831192  0.43833335    -0.89900
C2413       C  0.87555922  0.74594100  0.36995898     0.84000
O2414       O  0.93419140  0.87593924  0.45293364    -0.68100
O2415       O  0.83930308  0.81718343  0.32015090    -0.87400
C2416       C  0.91474957  0.84346932  0.46156158     0.84800
C2417       C  0.98635492  0.83878181  0.43154892     1.06400
H2418       H  0.87726262  0.82256750  0.38689388     0.38200
O2419       O  0.89078142  0.82203274  0.36443971    -1.10100
O2420       O  0.93500508  0.85668791  0.29773579    -0.66700
Ni2421     Ni  0.92074125  0.86988669  0.34651254     1.26300
O2422       O  0.91291161  0.81951372  0.43944562    -0.67000
O2423       O  0.88582582  0.87257684  0.31949351    -0.79200
C2424       C  0.96387191  0.94044718  0.36373315     0.84200
O2425       O  0.95268856  0.91934878  0.33386368    -0.66400
Ni2426     Ni  0.85805552  0.78839824  0.32790282     1.27400
Ni2427     Ni  0.92677247  0.81687629  0.38541921     1.26100
H2428       H  0.97327891  0.87081906  0.35541058     0.38700
C2429       C  0.83254937  0.86412141  0.30391098     0.02800
C2430       C  0.84406317  0.88745848  0.27135954    -0.13300
C2431       C  0.82527989  0.90191941  0.25907865     0.00300
C2432       C  0.79544397  0.89452938  0.28095563    -0.11900
C2433       C  0.78375734  0.87133163  0.31432761     0.02800
C2434       C  0.80216023  0.85544494  0.32519023    -0.11300
H2435       H  0.86710008  0.89319752  0.25447851     0.08400
H2436       H  0.78081382  0.90587054  0.27124997     0.05900
H2437       H  0.79342944  0.83712328  0.35060016     0.05800
C2438       C  0.76614558  0.94263365  0.46757014     0.02800
C2439       C  0.77323164  0.92478171  0.99702583    -0.13300
C2440       C  0.80537689  0.94151826  0.01664734     0.00300
C2441       C  0.82985205  0.97694671  0.00722057    -0.11900
C2442       C  0.82315657  0.49548867  0.47787139     0.02800
C2443       C  0.79112257  0.97802603  0.45820774    -0.11300
H2444       H  0.75398592  0.89721266  0.00341797     0.08400
H2445       H  0.85458200  0.48976724  0.02205139     0.05900
H2446       H  0.78620313  0.99126574  0.43425626     0.05800
C2447       C  0.65027141  0.94963422  0.26503662     0.02800
C2448       C  0.65624997  0.92754004  0.29006440    -0.13300
C2449       C  0.67828769  0.94225854  0.32415611     0.00300
C2450       C  0.69056214  0.97785112  0.33424516    -0.11900
C2451       C  0.68481777  0.99909531  0.30843208     0.02800
C2452       C  0.67013901  0.98592282  0.27101801    -0.11300
H2453       H  0.64213608  0.89927989  0.28512047     0.08400
H2454       H  0.70193361  0.98800102  0.36350035     0.05900
H2455       H  0.66729832  0.50322033  0.25056815     0.05800
C2456       C  0.79942319  0.65514284  0.39679155     0.02800
C2457       C  0.81928066  0.69182522  0.38953689    -0.13300
C2458       C  0.85470048  0.70841211  0.38000643     0.00300
C2459       C  0.86964967  0.68838288  0.37743760    -0.11900
C2460       C  0.84931370  0.65200349  0.38447707     0.02800
C2461       C  0.81460942  0.63540644  0.39488766    -0.11300
H2462       H  0.80706099  0.70699843  0.38973114     0.08400
H2463       H  0.89680028  0.70087885  0.36911203     0.05900
H2464       H  0.79903576  0.60690232  0.39911736     0.05800
C2465       C  0.51756729  0.97918887  0.62679482     0.02800
C2466       C  0.53833007  0.51611352  0.62844651    -0.13300
C2467       C  0.52376958  0.53636255  0.62302657     0.00300
C2468       C  0.98848792  0.51977735  0.61496815    -0.11900
C2469       C  0.96724500  0.98282314  0.61422187     0.02800
C2470       C  0.98189620  0.96239506  0.62036243    -0.11300
H2471       H  0.56583044  0.52906854  0.63371789     0.08400
H2472       H  0.97715674  0.53565869  0.61170243     0.05900
H2473       H  0.96553498  0.93379234  0.62172248     0.05800
C2474       C  0.70252514  0.85584866  0.65385274     0.02800
C2475       C  0.68083071  0.81869272  0.65684476    -0.13300
C2476       C  0.64498160  0.80191446  0.65224166     0.00300
C2477       C  0.63063669  0.82208649  0.64629748    -0.11900
C2478       C  0.65198911  0.85887875  0.64458311     0.02800
C2479       C  0.68771953  0.87589236  0.64870297    -0.11300
H2480       H  0.69202849  0.80267150  0.65975303     0.08400
H2481       H  0.60299317  0.80915088  0.64205305     0.05900
H2482       H  0.70399644  0.90438525  0.64508754     0.05800
C2483       C  0.89338991  0.83239567  0.99864732     0.02800
C2484       C  0.88480580  0.80064029  0.51813507    -0.13300
C2485       C  0.86242425  0.78819047  0.55187283     0.00300
C2486       C  0.84847970  0.80792326  0.56592248    -0.11900
C2487       C  0.85781294  0.84016554  0.54726312     0.02800
C2488       C  0.88054904  0.85251685  0.51394103    -0.11300
H2489       H  0.89505921  0.78526090  0.50655403     0.08400
H2490       H  0.83111300  0.79877363  0.59207361     0.05900
H2491       H  0.88762514  0.87735316  0.99951913     0.05800
O2492       O  0.53353097  0.94765216  0.66840337    -0.81200
O2493       O  0.60892604  0.87069403  0.65452607    -0.65900
O2494       O  0.59198432  0.94415559  0.65353844    -1.12500
C2495       C  0.57176623  0.90337547  0.52516070     1.05700
O2496       O  0.65148321  0.90459757  0.61006966    -0.79100
O2497       O  0.65383563  0.96470311  0.58056688    -0.66700
Ni2498     Ni  0.57093140  0.95101291  0.69908132     1.34900
C2499       C  0.64199683  0.98423132  0.57268722     0.84400
O2500       O  0.61238076  0.91111454  0.71372093    -0.79700
O2501       O  0.60817326  0.95647409  0.73187607    -0.89900
C2502       C  0.63663208  0.87895162  0.63571354     0.84000
O2503       O  0.54098472  0.90252274  0.71509065    -0.68100
O2504       O  0.60453164  0.92249056  0.52707022    -0.87400
C2505       C  0.53052821  0.87409329  0.69565344     0.84800
C2506       C  0.62157488  0.93773404  0.73566642     1.06400
H2507       H  0.57191799  0.87651032  0.59783353     0.38200
O2508       O  0.58964071  0.90089371  0.60299972    -1.10100
O2509       O  0.60963812  0.97166381  0.57505788    -0.66700
Ni2510     Ni  0.57105629  0.92933758  0.60116298     1.26300
O2511       O  0.55041183  0.87141194  0.67003986    -0.67000
O2512       O  0.55281316  0.90946184  0.54875078    -0.79200
C2513       C  0.53411278  0.95926676  0.63288899     0.84200
O2514       O  0.55017040  0.95634236  0.60290547    -0.66400
Ni2515     Ni  0.62822731  0.91453131  0.56863344     1.27400
Ni2516     Ni  0.59959712  0.90619560  0.65768454     1.26100
H2517       H  0.61435574  0.96572464  0.65018728     0.38700
C2518       C  0.67828549  0.57142519  0.51211243     0.02800
C2519       C  0.65569279  0.53611591  0.52620195    -0.13300
C2520       C  0.66559830  0.52188173  0.55848877     0.00300
C2521       C  0.69766603  0.54411822  0.57771363    -0.11900
C2522       C  0.71977310  0.57928545  0.56433720     0.02800
C2523       C  0.71051605  0.59100477  0.53028441    -0.11300
H2524       H  0.63091863  0.51968940  0.51199709     0.08400
H2525       H  0.70454085  0.53457009  0.60376920     0.05900
H2526       H  0.72905873  0.61716540  0.51832875     0.05800
C2527       C  0.99350753  0.84453621  0.70388038     0.02800
C2528       C  0.97385094  0.85037371  0.73302510    -0.13300
C2529       C  0.93857173  0.82543388  0.74067734     0.00300
C2530       C  0.92275699  0.79373738  0.71900427    -0.11900
C2531       C  0.94124716  0.78645505  0.69059322     0.02800
C2532       C  0.97665794  0.81211506  0.68247170    -0.11300
H2533       H  0.98608339  0.87458227  0.75025276     0.08400
H2534       H  0.89577114  0.77376241  0.72501104     0.05900
H2535       H  0.99082101  0.80682868  0.66000914     0.05800
O2536       O  0.86432407  0.62550996  0.66666849    -0.81200
O2537       O  0.87205961  0.74202490  0.57056458    -0.65900
O2538       O  0.85299239  0.67852452  0.65852471    -1.12500
C2539       C  0.75061556  0.60755394  0.58610023     1.05700
O2540       O  0.82335916  0.73719583  0.59039423    -0.79100
O2541       O  0.77666809  0.68705722  0.64152447    -0.66700
Ni2542     Ni  0.88916583  0.67456847  0.67927777     1.34900
C2543       C  0.76606234  0.66243100  0.66750686     0.84400
O2544       O  0.90835181  0.74846344  0.63686504    -0.79700
O2545       O  0.91502277  0.72415997  0.69262585    -0.89900
C2546       C  0.85220015  0.75399596  0.57133735     0.84000
O2547       O  0.91691096  0.68304220  0.63131863    -0.68100
O2548       O  0.75494818  0.63818558  0.58173479    -0.87400
C2549       C  0.91180671  0.68456697  0.59386255     0.84800
C2550       C  0.92170177  0.75109549  0.67141159     1.06400
H2551       H  0.82599321  0.66592042  0.56845920     0.38200
O2552       O  0.82227914  0.67377759  0.59420015    -1.10100
O2553       O  0.77915558  0.64326741  0.66913731    -0.66700
Ni2554     Ni  0.81226951  0.63869278  0.63439991     1.26300
O2555       O  0.88965267  0.69198492  0.58211123    -0.67000
O2556       O  0.77167745  0.60216091  0.60563588    -0.79200
C2557       C  0.83507431  0.60361096  0.68266345     0.84200
O2558       O  0.80851449  0.60488150  0.67434324    -0.66400
Ni2559     Ni  0.78998820  0.68709088  0.58670720     1.27400
Ni2560     Ni  0.86543939  0.71053967  0.61413298     1.26100
H2561       H  0.84512053  0.68702464  0.68041609     0.38700
O2562       O  0.74716734  0.85260173  0.62570484    -0.81200
O2563       O  0.90876911  0.95631792  0.59150169    -0.65900
O2564       O  0.81605008  0.89359569  0.62910571    -1.12500
C2565       C  0.83512687  0.99573553  0.69205851     1.05700
O2566       O  0.91943578  0.96435379  0.65665701    -0.79100
O2567       O  0.86737655  0.93970261  0.71084534    -0.66700
Ni2568     Ni  0.78414759  0.85796914  0.59342142     1.34900
C2569       C  0.83580398  0.92254987  0.72170913     0.84400
O2570       O  0.86635679  0.88712161  0.58742471    -0.79700
O2571       O  0.81647392  0.85607030  0.55718199    -0.89900
C2572       C  0.93001986  0.96704267  0.62036637     0.84000
O2573       O  0.78574834  0.89406019  0.56208359    -0.68100
O2574       O  0.86326000  0.49710341  0.69826223    -0.87400
C2575       C  0.81234827  0.92176538  0.54744990     0.84800
C2576       C  0.84612958  0.86222215  0.56486777     1.06400
H2577       H  0.86368678  0.97842781  0.61360638     0.38200
O2578       O  0.85885384  0.96007555  0.63302167    -1.10100
O2579       O  0.81247377  0.92148509  0.70081087    -0.66700
Ni2580     Ni  0.81090491  0.93282882  0.64571590     1.26300
O2581       O  0.84364523  0.93242840  0.55816845    -0.67000
O2582       O  0.81212130  0.97429499  0.66678990    -0.79200
C2583       C  0.73956535  0.87211615  0.64495662     0.84200
O2584       O  0.76134219  0.90447860  0.65344530    -0.66400
Ni2585     Ni  0.88995608  0.97993827  0.67609902     1.27400
Ni2586     Ni  0.86173529  0.92394338  0.60833324     1.26100
H2587       H  0.81732873  0.88154905  0.65264214     0.38700
C2588       C  0.86665398  0.56977254  0.76397626     0.02800
C2589       C  0.85255358  0.53495876  0.75131691    -0.13300
C2590       C  0.83252665  0.52239323  0.71560157     0.00300
C2591       C  0.82191321  0.54303930  0.69663075    -0.11900
C2592       C  0.83388667  0.57726139  0.71053655     0.02800
C2593       C  0.85598431  0.59023452  0.74401927    -0.11300
H2594       H  0.86138682  0.51940171  0.76563746     0.08400
H2595       H  0.80905777  0.53484978  0.66779300     0.05900
H2596       H  0.86716328  0.61766539  0.75234037     0.05800
C2597       C  0.69236876  0.62378672  0.74882219     0.02800
C2598       C  0.72468771  0.63452674  0.72963984    -0.13300
C2599       C  0.73466024  0.65411293  0.69273563     0.00300
C2600       C  0.71189770  0.66328646  0.67632953    -0.11900
C2601       C  0.67939462  0.65166035  0.69423537     0.02800
C2602       C  0.66992056  0.63184681  0.73007309    -0.11300
H2603       H  0.74143678  0.62699886  0.74276737     0.08400
H2604       H  0.71872527  0.67836541  0.64831634     0.05900
H2605       H  0.64518888  0.62372602  0.74431594     0.05800
O2606       O  0.62470827  0.74633007  0.68113991    -0.81200
O2607       O  0.55667314  0.59252890  0.65519133    -0.65900
O2608       O  0.61478852  0.69157293  0.63555331    -1.12500
C2609       C  0.51513657  0.67468805  0.57494680     1.05700
O2610       O  0.55156902  0.59069635  0.58880616    -0.79100
O2611       O  0.57288837  0.64812185  0.54226602    -0.66700
Ni2612     Ni  0.64674043  0.72060812  0.67504776     1.34900
C2613       C  0.59150420  0.68141895  0.53746537     0.84400
O2614       O  0.62375122  0.64012162  0.67531046    -0.79700
O2615       O  0.66991289  0.69552126  0.67018633    -0.89900
C2616       C  0.54531450  0.57491039  0.62269300     0.84000
O2617       O  0.62077304  0.69198243  0.72085133    -0.68100
O2618       O  0.51476250  0.64722809  0.56307145    -0.87400
C2619       C  0.58804551  0.67401331  0.72458621     0.84800
C2620       C  0.65641542  0.66279059  0.67805377     1.06400
H2621       H  0.53270608  0.63882713  0.64179759     0.38200
O2622       O  0.55200187  0.64645977  0.62316693    -1.10100
O2623       O  0.59260167  0.70277187  0.56357541    -0.66700
Ni2624     Ni  0.57688393  0.69658206  0.61946772     1.26300
O2625       O  0.56976131  0.65090928  0.69851027    -0.67000
O2626       O  0.53661314  0.69660080  0.60093156    -0.79200
C2627       C  0.62315691  0.76339202  0.65164292     0.84200
O2628       O  0.60407602  0.74734275  0.62153078    -0.66400
Ni2629     Ni  0.53383258  0.61983391  0.57645749     1.27400
Ni2630     Ni  0.58706420  0.64255280  0.64842362     1.26100
H2631       H  0.62838250  0.69391018  0.61169889     0.38700
C2632       C  0.93401065  0.67791905  0.56487506     0.02800
C2633       C  0.96733982  0.68754477  0.57827992    -0.13300
C2634       C  0.98784128  0.67829999  0.55620661     0.00300
C2635       C  0.97629634  0.66160440  0.51879370    -0.11900
C2636       C  0.94229477  0.64682880  0.00709055     0.02800
C2637       C  0.92124500  0.65647372  0.52931159    -0.11300
H2638       H  0.97632734  0.69995745  0.60744179     0.08400
H2639       H  0.49272426  0.65551026  0.50124344     0.05900
H2640       H  0.89465692  0.64548229  0.52081761     0.05800
C2641       C  0.98484892  0.53387155  0.87435001     0.02800
C2642       C  0.96599247  0.99758647  0.86471927    -0.13300
C2643       C  0.98294279  0.97919596  0.85940460     0.00300
C2644       C  0.51888733  0.99752258  0.86313704    -0.11900
C2645       C  0.53785880  0.53329730  0.87367097     0.02800
C2646       C  0.52084836  0.55151981  0.87940451    -0.11300
H2647       H  0.93801291  0.98326370  0.86383221     0.08400
H2648       H  0.53203265  0.98333423  0.85994541     0.05900
H2649       H  0.53559164  0.57938882  0.88676507     0.05800
O2650       O  0.59112499  0.55641572  0.83996074    -0.81200
O2651       O  0.74536839  0.61839351  0.86869975    -0.65900
O2652       O  0.64780109  0.56006744  0.87371967    -1.12500
C2653       C  0.65833615  0.66143470  0.93624167     1.05700
O2654       O  0.74720913  0.63708568  0.93116424    -0.79100
O2655       O  0.69198734  0.62389236  0.97640356    -0.66700
Ni2656     Ni  0.62220919  0.54104397  0.82677288     1.34900
C2657       C  0.67205571  0.59024462  0.97810452     0.84400
O2658       O  0.70003360  0.54991389  0.84912059    -0.79700
O2659       O  0.65137590  0.52388980  0.81230423    -0.89900
C2660       C  0.76216789  0.63626703  0.89902111     0.84000
O2661       O  0.64758233  0.58109368  0.79179939    -0.68100
O2662       O  0.69080844  0.67604096  0.93238939    -0.87400
C2663       C  0.67991204  0.60229965  0.78701066     0.84800
C2664       C  0.67921265  0.52651472  0.82432319     1.06400
H2665       H  0.69159388  0.63926559  0.86739571     0.38200
O2666       O  0.68963968  0.62430179  0.88972570    -1.10100
O2667       O  0.64922533  0.57379006  0.95124224    -0.66700
Ni2668     Ni  0.64162365  0.59332350  0.90196840     1.26300
O2669       O  0.70122107  0.60567264  0.81365326    -0.67000
O2670       O  0.63683725  0.62831473  0.93100053    -0.79200
C2671       C  0.57570571  0.55142066  0.87400830     0.84200
O2672       O  0.59256542  0.56098809  0.90686889    -0.66400
Ni2673     Ni  0.71759982  0.65492818  0.93134686     1.27400
Ni2674     Ni  0.69665603  0.58841295  0.86911231     1.26100
H2675       H  0.64173310  0.54021337  0.89129839     0.38700
C2676       C  0.61362109  0.69496007  0.50058455     0.02800
C2677       C  0.62449010  0.67349703  0.98426048    -0.13300
C2678       C  0.64560943  0.68381964  0.95004119     0.00300
C2679       C  0.65634651  0.71633122  0.93134948    -0.11900
C2680       C  0.64480142  0.73825030  0.94573943     0.02800
C2681       C  0.62335162  0.72737193  0.98099099    -0.11300
H2682       H  0.61745588  0.64883281  0.99916175     0.06800
H2683       H  0.67271502  0.72377390  0.90441740     0.05900
H2684       H  0.61401863  0.74351810  0.99264281     0.05800
C2685       C  0.57235729  0.68295290  0.75872027     0.02800
C2686       C  0.53714624  0.66292676  0.77078693    -0.13300
C2687       C  0.52462890  0.67581476  0.80149669     0.00300
C2688       C  0.54746046  0.70829635  0.82017596    -0.11900
C2689       C  0.58240713  0.72731115  0.80929450     0.02800
C2690       C  0.59409705  0.71504212  0.77802512    -0.11300
H2691       H  0.51966606  0.63797195  0.75631675     0.08400
H2692       H  0.53846123  0.71760847  0.84480680     0.05900
H2693       H  0.62106600  0.73114340  0.76869590     0.05800
O2694       O  0.96653852  0.56475321  0.91650497    -0.81200
O2695       O  0.86323526  0.61239704  0.90789206    -0.65900
O2696       O  0.90570038  0.56051596  0.89956347    -1.12500
C2697       C  0.98855255  0.65519578  0.81675054     1.05700
O2698       O  0.87766699  0.63241467  0.84470118    -0.79100
O2699       O  0.91429764  0.62063220  0.79211565    -0.66700
Ni2700     Ni  0.92477829  0.55485573  0.94642309     1.34900
C2701       C  0.89561332  0.58717838  0.79379536     0.84400
O2702       O  0.84697806  0.54682578  0.93466830    -0.79700
O2703       O  0.88232834  0.54085969  0.97605554    -0.89900
C2704       C  0.86417144  0.63121533  0.87881774     0.84000
O2705       O  0.94590122  0.60333796  0.96604674    -0.68100
O2706       O  0.97398613  0.67180266  0.82692864    -0.87400
C2707       C  0.92941783  0.61851739  0.97493159     0.84800
C2708       C  0.85209058  0.53005473  0.96251532     1.06400
H2709       H  0.94223211  0.63802191  0.89663368     0.38200
O2710       O  0.92557909  0.62241269  0.87720026    -1.10100
O2711       O  0.90195367  0.56987758  0.81962687    -0.66700
Ni2712     Ni  0.93873642  0.59058845  0.86040279     1.26300
O2713       O  0.90174519  0.60943584  0.95715875    -0.67000
O2714       O  0.97357391  0.62175481  0.82079190    -0.79200
C2715       C  0.96649992  0.55252253  0.88114065     0.84200
O2716       O  0.95138268  0.55690593  0.85161438    -0.66400
Ni2717     Ni  0.92561018  0.65189782  0.83650069     1.27400
Ni2718     Ni  0.88437508  0.58616788  0.90577838     1.26100
H2719       H  0.88983477  0.53761208  0.88804579     0.38700
C2720       C  0.51113015  0.83410754  0.95384312     0.02800
C2721       C  0.52213644  0.85348180  0.98988846    -0.13300
C2722       C  0.55681634  0.87190383  0.49905242     0.00300
C2723       C  0.57807699  0.86192252  0.98039736    -0.11900
C2724       C  0.56608091  0.83785239  0.94823393     0.02800
C2725       C  0.53259440  0.82478020  0.93379212    -0.11300
H2726       H  0.50555410  0.86054249  0.50538402     0.08400
H2727       H  0.60508357  0.87516796  0.48846714     0.05900
H2728       H  0.52534674  0.81191225  0.90464545     0.05800
O2729       O  0.73363310  0.83072123  0.85199001    -0.81200
O2730       O  0.59501484  0.81109303  0.91739213    -0.65900
O2731       O  0.67212757  0.82972906  0.84973531    -1.12500
C2732       C  0.73435916  0.92248657  0.94365433     1.05700
O2733       O  0.61700904  0.86810736  0.90988581    -0.79100
O2734       O  0.67864317  0.92457795  0.89159424    -0.66700
Ni2735     Ni  0.68539209  0.79684896  0.84306486     1.34900
C2736       C  0.68241891  0.91984861  0.85449780     0.84400
O2737       O  0.60198993  0.77931108  0.84940634    -0.79700
O2738       O  0.63836445  0.76125302  0.83244968    -0.89900
C2739       C  0.59295889  0.83818328  0.92291620     0.84000
O2740       O  0.68053506  0.78272193  0.89820120    -0.68100
O2741       O  0.70537029  0.91390246  0.96022045    -0.87400
C2742       C  0.65365608  0.76999415  0.92049424     0.84800
C2743       C  0.60875394  0.75791916  0.83205679     1.06400
H2744       H  0.67303820  0.84587154  0.93851624     0.38200
O2745       O  0.66801252  0.85573630  0.91557848    -1.10100
O2746       O  0.68996913  0.89729646  0.84367997    -0.66700
Ni2747     Ni  0.70459886  0.87143303  0.87717069     1.26300
O2748       O  0.63329116  0.78136987  0.91835815    -0.67000
O2749       O  0.73709495  0.91293502  0.90786332    -0.79200
C2750       C  0.75099068  0.86117896  0.83551974     0.84200
O2751       O  0.74038359  0.88232974  0.83798050    -0.66400
Ni2752     Ni  0.66077250  0.89089651  0.93539553     1.27400
Ni2753     Ni  0.63315845  0.81734677  0.88397736     1.26100
H2754       H  0.66809636  0.83570567  0.82313667     0.38700
O2755       O  0.95983693  0.92855405  0.89950578    -0.81200
O2756       O  0.89680549  0.76738334  0.89533836    -0.65900
O2757       O  0.95464379  0.86628525  0.87377802    -1.12500
C2758       C  0.85365770  0.85033572  0.81563815     1.05700
O2759       O  0.87292396  0.75628427  0.83534805    -0.79100
O2760       O  0.88731692  0.80591817  0.78013257    -0.66700
Ni2761     Ni  0.97372260  0.89734780  0.91777825     1.34900
C2762       C  0.91907595  0.83006409  0.77449002     0.84400
O2763       O  0.96475244  0.81557192  0.90717280    -0.79700
O2764       O  0.98896899  0.86831457  0.93833140    -0.89900
C2765       C  0.87555998  0.74594180  0.86995725     0.84000
O2766       O  0.93418975  0.87593846  0.95293358    -0.68100
O2767       O  0.83930322  0.81718409  0.82015256    -0.87400
C2768       C  0.91474846  0.84346843  0.96156109     0.84800
C2769       C  0.98635609  0.83878482  0.93154717     1.06400
H2770       H  0.87726287  0.82256777  0.88689344     0.38200
O2771       O  0.89078173  0.82203305  0.86443924    -1.10100
O2772       O  0.93500685  0.85668745  0.79773686    -0.66700
Ni2773     Ni  0.92074179  0.86988701  0.84651158     1.26300
O2774       O  0.91291155  0.81951328  0.93944529    -0.67000
O2775       O  0.88582712  0.87257671  0.81949061    -0.79200
C2776       C  0.96387154  0.94044724  0.86373277     0.84200
O2777       O  0.95268967  0.91934936  0.83386266    -0.66400
Ni2778     Ni  0.85805612  0.78839886  0.82790221     1.27400
Ni2779     Ni  0.92677286  0.81687692  0.88541876     1.26100
H2780       H  0.97327940  0.87082034  0.85541176     0.38700
C2781       C  0.83255072  0.86412332  0.80391354     0.02800
C2782       C  0.84406355  0.88745870  0.77136060    -0.13300
C2783       C  0.82528043  0.90191970  0.75907948     0.00300
C2784       C  0.79544475  0.89453016  0.78095622    -0.11900
C2785       C  0.78375904  0.87133428  0.81432968     0.02800
C2786       C  0.80216293  0.85544920  0.82519467    -0.11300
H2787       H  0.86709957  0.89319642  0.75447854     0.08400
H2788       H  0.78081386  0.90587010  0.77124910     0.05900
H2789       H  0.79343294  0.83712933  0.85060628     0.05800
C2790       C  0.76614783  0.94263334  0.96756630     0.02800
C2791       C  0.77322912  0.92478248  0.49703068    -0.13300
C2792       C  0.80537527  0.94151809  0.51665007     0.00300
C2793       C  0.82985159  0.97694579  0.50722075    -0.11900
C2794       C  0.82315456  0.49549085  0.97787144     0.02800
C2795       C  0.79112409  0.97802602  0.95820529    -0.11300
H2796       H  0.75398265  0.89721399  0.50342449     0.08400
H2797       H  0.85458258  0.48976611  0.52205442     0.05900
H2798       H  0.78620472  0.99126574  0.93425378     0.05800
C2799       C  0.65026978  0.94963496  0.76503495     0.02800
C2800       C  0.65624837  0.92754086  0.79006289    -0.13300
C2801       C  0.67828707  0.94225982  0.82415382     0.00300
C2802       C  0.69056193  0.97785267  0.83424216    -0.11900
C2803       C  0.68481668  0.99909647  0.80842935     0.02800
C2804       C  0.67013742  0.98592357  0.77101576    -0.11300
H2805       H  0.64213408  0.89928060  0.78511962     0.08400
H2806       H  0.70193449  0.98800310  0.86349673     0.05900
H2807       H  0.66730156  0.50321977  0.75056803     0.05800
C2808       C  0.79942204  0.65514342  0.89678514     0.02800
C2809       C  0.81928010  0.69182603  0.88953180    -0.13300
C2810       C  0.85470041  0.70841286  0.88000391     0.00300
C2811       C  0.86964940  0.68838342  0.87743581    -0.11900
C2812       C  0.84931270  0.65200384  0.88447289     0.02800
C2813       C  0.81460796  0.63540673  0.89488101    -0.11300
H2814       H  0.80706072  0.70699951  0.88972562     0.08400
H2815       H  0.89680043  0.70087938  0.86911236     0.05900
H2816       H  0.79903400  0.60690250  0.89910961     0.05800
loop_ 
_geom_bond_atom_site_label_1 
_geom_bond_atom_site_label_2 
_geom_bond_distance 
_geom_bond_site_symmetry_2 
_ccdc_geom_bond_type 
C1           C49   1.458       .  S
C1          C706   1.400       .  A
C1         C1414   1.405   1_455  A
C2            C3   1.393       .  A
C2          C705   1.400   1_545  A
C2            H7   1.085       .  S
C3          C152   1.459       .  S
C3         C1412   1.400   1_455  A
C4         C1411   1.400       .  A
C4          C709   1.401   1_545  A
C4            H8   1.085       .  S
C5          C108   1.464       .  S
C5            C6   1.407       .  A
C5          C708   1.401       .  A
C6         C1409   1.405       .  A
C6            H9   1.084       .  S
C10         C119   1.467       .  S
C10          C11   1.411       .  A
C10          C15   1.392       .  A
C11          C12   1.403       .  A
C11          H16   1.084       .  S
C12         C163   1.459       .  S
C12          C13   1.384       .  A
C13          C14   1.395       .  A
C13          H17   1.085       .  S
C14          C38   1.435       .  S
C14          C15   1.396       .  A
C15          H18   1.085       .  S
C19         C304   1.464       .  S
C19         C372   1.407       .  A
C19         C376   1.400       .  A
C20          C21   1.398       .  A
C20         C371   1.407   1_554  A
C20          H25   1.084       .  S
C21          C82   1.482       .  S
C21          C22   1.410       .  A
C22          C23   1.405       .  A
C22          H26   1.084       .  S
C23         C112   1.464       .  S
C23          C24   1.395       .  A
C24         C371   1.400   1_554  A
C24         H379   1.084   1_554  S
H27         C376   1.084       .  S
O28         Ni34   1.938       .  S
O28          C49   1.277       .  A
O29         Ni52   1.852       .  S
O29          C38   1.266       .  A
O30         Ni34   1.884       .  S
O30         Ni52   1.910       .  S
O30         Ni46   1.930       .  S
O30          H53   0.966       .  S
C31         C258   1.477   1_554  S
C31          O48   1.288       .  A
C31          O40   1.271       .  A
O32         Ni51   1.937       .  S
O32          C38   1.282       .  A
O33         Ni51   1.941       .  S
O33          C35   1.277       .  A
Ni34         O37   1.936       .  S
Ni34         O39   1.914       .  S
C35         C760   1.504       .  S
C35          O45   1.273       .  A
O36         Ni52   1.927       .  S
O36          C42   1.262       .  A
O37          C42   1.281       .  A
O39          C41   1.272       .  A
O40         Ni51   1.909       .  S
C41        C1471   1.511   1_455  S
C41          O47   1.283       .  A
C42         C335   1.497       .  S
H43          O44   0.968       .  S
O44         Ni52   1.854       .  S
O44         Ni46   1.869       .  S
O44         Ni51   1.887       .  S
O45         Ni46   1.956       .  S
Ni46         O50   1.896       .  S
Ni46         O48   1.933       .  S
O47         Ni52   1.970       .  S
C49          O50   1.271       .  A
C54         C545   1.522   1_554  S
C54          C55   1.421       .  A
C54          C59   1.397       .  A
C55          C56   1.439       .  A
C55          H60   1.083       .  S
C56         C739   1.504   1_545  S
C56          C57   1.420       .  A
C57          C58   1.407       .  A
C57          H61   1.083       .  S
C58          C75   1.495       .  S
C58          C59   1.404       .  A
C59          H62   1.084       .  S
C63        C1449   1.511       .  S
C63          C64   1.422       .  A
C63          C68   1.421       .  A
C64          C65   1.406       .  A
C64          H69   1.083       .  S
C65         C298   1.499       .  S
C65          C66   1.402       .  A
C66          C67   1.403       .  A
C66          H70   1.084       .  S
C67          C86   1.486       .  S
C67          C68   1.419       .  A
C68          H71   1.083       .  S
O72         Ni78   1.905       .  S
O72          C93   1.268       .  A
O73         Ni96   1.917       .  S
O73          C82   1.276       .  A
O74         Ni78   1.893       .  S
O74         Ni96   1.904       .  S
O74         Ni90   1.945       .  S
O74          H97   0.966       .  S
C75          O92   1.292       .  A
C75          O84   1.282       .  A
O76         Ni95   1.929       .  S
O76          C82   1.271       .  A
O77         Ni95   1.900       .  S
O77          C79   1.265       .  A
Ni78         O81   1.930       .  S
Ni78         O83   1.919       .  S
C79         C135   1.512       .  S
C79          O89   1.281       .  A
O80         Ni96   1.946       .  S
O80          C86   1.278       .  A
O81          C86   1.278       .  A
O83          C85   1.271       .  A
O84         Ni95   1.909       .  S
C85         C168   1.524       .  S
C85          O91   1.287       .  A
H87          O88   0.966       .  S
O88         Ni96   1.901       .  S
O88         Ni90   1.910       .  S
O88         Ni95   1.882       .  S
O89         Ni90   1.980       .  S
Ni90         O94   1.941       .  S
Ni90         O92   1.959       .  S
O91         Ni96   1.992       .  S
C93         C128   1.472       .  S
C93          O94   1.279       .  A
O98        Ni104   1.887       .  S
O98         C119   1.265       .  A
O99        Ni122   1.916       .  S
O99         C108   1.271       .  A
O100       Ni104   1.906       .  S
O100       Ni122   1.899       .  S
O100       Ni116   1.966       .  S
O100        H123   0.966       .  S
C101        C830   1.478       .  S
C101        O118   1.294       .  A
C101        O814   1.275       .  A
O102       Ni121   1.919       .  S
O102        C108   1.267       .  A
O103       Ni121   1.897       .  S
O103        C105   1.266       .  A
Ni104       O107   1.923       .  S
Ni104       O109   1.884       .  S
C105        C319   1.454       .  S
C105        O115   1.259       .  A
O106       Ni122   1.896       .  S
O106        C112   1.254       .  A
O107        C112   1.261       .  A
O109        C111   1.273       .  A
O110       Ni825   1.892       .  S
O110        C805   1.275       .  A
C111        C328   1.492       .  S
C111        O117   1.299       .  A
H113        O114   0.967       .  S
O114       Ni122   1.874       .  S
O114       Ni116   1.894       .  S
O114       Ni121   1.885       .  S
O115       Ni116   1.902       .  S
Ni116       O120   1.930       .  S
Ni116       O118   1.952       .  S
O117       Ni122   1.988       .  S
C119        O120   1.279       .  A
Ni121       O814   1.892       .  S
C124        C237   1.507       .  S
C124        C125   1.396       .  A
C124        C129   1.412       .  A
C125        C126   1.425       .  A
C125        H130   1.084       .  S
C126        C805   1.478   1_545  S
C126        C127   1.402       .  A
C127        C128   1.402       .  A
C127        H131   1.084       .  S
C128        C129   1.411       .  A
C129        H132   1.084       .  S
C133        C199   1.494       .  S
C133        C134   1.424       .  A
C133        C138   1.407       .  A
C134        C135   1.420       .  A
C134        H139   1.083       .  S
C135        C136   1.420       .  A
C136        C137   1.406       .  A
C136        H140   1.084       .  S
C137        C156   1.487       .  S
C137        C138   1.396       .  A
C138        H141   1.085       .  S
O142       Ni148   1.898       .  S
O142        C163   1.263       .  A
O143       Ni166   1.912       .  S
O143        C152   1.274       .  A
O144       Ni148   1.887       .  S
O144       Ni166   1.900       .  S
O144       Ni160   1.943       .  S
O144        H167   0.966       .  S
C145       C1578   1.485   1_455  S
C145        O162   1.289       .  A
C145        O154   1.280       .  A
O146       Ni165   1.912       .  S
O146        C152   1.268       .  A
O147       Ni165   1.895       .  S
O147        C149   1.269       .  A
Ni148       O151   1.914       .  S
Ni148       O153   1.912       .  S
C149        C212   1.476       .  S
C149        O159   1.267       .  A
O150       Ni166   1.963       .  S
O150        C156   1.287       .  A
O151        C156   1.273       .  A
O153        C155   1.269       .  A
O154       Ni165   1.898       .  S
C155        C221   1.491       .  S
C155        O161   1.269       .  A
H157        O158   0.967       .  S
O158       Ni166   1.907       .  S
O158       Ni160   1.899       .  S
O158       Ni165   1.864       .  S
O159       Ni160   1.935       .  S
Ni160       O164   1.921       .  S
Ni160       O162   1.950       .  S
O161       Ni166   1.942       .  S
C163        O164   1.275       .  A
C168        C169   1.423       .  A
C168        C173   1.437       .  A
C169        C170   1.404       .  A
C169        H174   1.083       .  S
C170       C1553   1.485       .  S
C170        C171   1.401       .  A
C171        C524   1.388       .  A
C171       H1583   1.085       .  S
C172        C243   1.517       .  S
C172        C523   1.388       .  A
C172        C525   1.438       .  A
C173        C524   1.438       .  A
C173        H176   1.082       .  S
H175       C1579   1.085       .  S
C177        C251   1.479       .  S
C177        C882   1.411   1_545  A
C177       C1590   1.408       .  A
C178        C179   1.407       .  A
C178        C881   1.411       .  A
C178        H183   1.084       .  S
C179        C312   1.472       .  S
C179       C1588   1.399       .  A
C180       C1587   1.399   1_455  A
C180        C885   1.400       .  A
C180        H184   1.085       .  S
C181        C207   1.468       .  S
C181        C182   1.405       .  A
C181        C884   1.400   1_545  A
C182       C1585   1.408   1_455  A
C182        H185   1.084       .  S
O186       Ni192   1.923       .  S
O186        C207   1.272       .  A
O187       Ni210   1.890       .  S
O187        C196   1.266       .  A
O188       Ni192   1.869       .  S
O188       Ni210   1.894       .  S
O188       Ni204   1.896       .  S
O188        H211   0.966       .  S
C189        C214   1.469       .  S
C189        O206   1.281       .  A
C189        O198   1.267       .  A
O190       Ni209   1.902       .  S
O190        C196   1.264       .  A
O191       Ni209   1.929       .  S
O191        C193   1.278       .  A
Ni192       O195   1.913       .  S
Ni192       O197   1.904       .  S
C193        C406   1.522       .  S
C193        O203   1.276       .  A
O194       Ni210   1.923       .  S
O194        C200   1.278       .  A
O195        C200   1.284       .  A
C196        C344   1.443       .  S
O197        C199   1.267       .  A
O198       Ni209   1.903       .  S
C199        O205   1.272       .  A
C200       C1043   1.474   1_545  S
H201        O202   0.966       .  S
O202       Ni210   1.918       .  S
O202       Ni204   1.905       .  S
O202       Ni209   1.894       .  S
O203       Ni204   1.968       .  S
Ni204       O208   1.917       .  S
Ni204       O206   1.941       .  S
O205       Ni210   1.952       .  S
C207        O208   1.277       .  A
C212        C565   1.398   1_554  A
C212        C569   1.421   1_554  A
C213        C214   1.383       .  A
C213        C564   1.398       .  A
C213        H218   1.085       .  S
C214        C215   1.401       .  A
C215        C216   1.416       .  A
C215        H219   1.084       .  S
C216        C278   1.500       .  S
C216        C217   1.417       .  A
C217        C564   1.421       .  A
C217        H220   1.083       .  S
C221        C222   1.412       .  A
C221        C226   1.397       .  A
C222        C223   1.421       .  A
C222        H227   1.083       .  S
C223       C1641   1.475   1_455  S
C223        C224   1.408       .  A
C224        C225   1.392       .  A
C224        H228   1.084       .  S
C225        C279   1.470       .  S
C225        C226   1.395       .  A
C226        H229   1.084       .  S
O230       Ni236   1.963       .  S
O230        C251   1.289       .  A
O231       Ni254   1.875       .  S
O231        C240   1.262       .  A
O232       Ni236   1.871       .  S
O232       Ni254   1.868       .  S
O232       Ni248   1.880       .  S
O232        H255   0.967       .  S
C233       C1631   1.475       .  S
C233        O250   1.275       .  A
C233        O242   1.275       .  A
O234       Ni253   1.892       .  S
O234        C240   1.263       .  A
O235       Ni253   1.903       .  S
O235        C237   1.267       .  A
Ni236       O239   1.939       .  S
Ni236       O241   1.959       .  S
C237        O247   1.287       .  A
O238       Ni254   1.915       .  S
O238        C244   1.287       .  A
O239        C244   1.285       .  A
C240        C348   1.424       .  S
O241        C243   1.285       .  A
O242       Ni253   1.913       .  S
C243        O249   1.259       .  A
C244        C330   1.481   1_545  S
H245        O246   0.963       .  S
O246       Ni254   1.937       .  S
O246       Ni248   1.895       .  S
O246       Ni253   1.882       .  S
O247       Ni248   1.978       .  S
Ni248       O252   1.899       .  S
Ni248       O250   1.938       .  S
O249       Ni254   1.938       .  S
C251        O252   1.278       .  A
C256       C1713   1.466   1_455  S
C256        C257   1.405       .  A
C256        C261   1.410       .  A
C257        C610   1.381       .  A
C257        H614   1.085       .  S
C258        C609   1.381       .  A
C258        C611   1.402       .  A
C259        C260   1.406       .  A
C259        C610   1.402       .  A
C259        H615   1.085       .  S
C260        C275   1.468       .  S
C260        C261   1.408       .  A
C261        H264   1.084       .  S
H262        C609   1.085   1_554  S
H263        C611   1.085       .  S
O265       Ni271   1.925       .  S
O265        C286   1.270       .  A
O266       Ni289   1.937       .  S
O266        C275   1.276       .  A
O267       Ni271   1.876       .  S
O267       Ni289   1.908       .  S
O267       Ni283   1.895       .  S
O267        H290   0.967       .  S
C268        C326   1.479       .  S
C268        O285   1.283       .  A
C268        O277   1.279       .  A
O269       Ni288   1.906       .  S
O269        C275   1.265       .  A
O270       Ni288   1.917       .  S
O270        C272   1.268       .  A
Ni271       O274   1.911       .  S
Ni271       O276   1.898       .  S
C272        C337   1.500       .  S
C272        O282   1.276       .  A
O273       Ni289   1.922       .  S
O273        C279   1.283       .  A
O274        C279   1.281       .  A
O276        C278   1.265       .  A
O277       Ni288   1.925       .  S
C278        O284   1.279       .  A
H280        O281   0.967       .  S
O281       Ni289   1.926       .  S
O281       Ni283   1.892       .  S
O281       Ni288   1.885       .  S
O282       Ni283   1.963       .  S
Ni283       O287   1.916       .  S
Ni283       O285   1.946       .  S
O284       Ni289   1.971       .  S
C286        C321   1.477       .  S
C286        O287   1.273       .  A
O291       Ni297   1.915       .  S
O291        C312   1.265       .  A
O292       Ni315   1.906       .  S
O292        C301   1.264       .  A
O293       Ni297   1.884       .  S
O293       Ni315   1.906       .  S
O293       Ni309   1.884       .  S
O293        H316   0.966       .  S
C294        C317   1.451       .  S
C294        O311   1.271       .  A
C294        O303   1.268       .  A
O295       Ni314   1.904       .  S
O295        C301   1.264       .  A
O296       Ni314   1.925       .  S
O296        C298   1.276       .  A
Ni297       O300   1.900       .  S
Ni297       O302   1.902       .  S
C298        O308   1.277       .  A
O299       Ni315   1.919       .  S
O299        C305   1.278       .  A
O300        C305   1.280       .  A
C301        C346   1.455       .  S
O302        C304   1.262       .  A
O303       Ni314   1.907       .  S
C304        O310   1.262       .  A
C305       C1664   1.466       .  S
H306        O307   0.966       .  S
O307       Ni315   1.919       .  S
O307       Ni309   1.911       .  S
O307       Ni314   1.901       .  S
O308       Ni309   1.935       .  S
Ni309       O313   1.932       .  S
Ni309       O311   1.899       .  S
O310       Ni315   1.908       .  S
C312        O313   1.275       .  A
C317        C318   1.385       .  A
C317        C322   1.403       .  A
C318        C319   1.386       .  A
C318        H323   1.086       .  S
C319        C320   1.407       .  A
C320        C321   1.402       .  A
C320        H324   1.084       .  S
C321        C322   1.409       .  A
C322        H325   1.084       .  S
C326        C331   1.402       .  A
C326        C679   1.405       .  A
C327        C328   1.413   1_556  A
C327        C678   1.405       .  A
C327        H332   1.084   1_556  S
C328        C329   1.399       .  A
C329       C1386   1.414   1_554  A
C329       H1037   1.083       .  S
C330       C1385   1.414       .  A
C330       C1035   1.410       .  A
C331       C1034   1.410       .  A
C331        H334   1.084       .  S
H333       C1033   1.083       .  S
C335        C336   1.424       .  A
C335        C340   1.389       .  A
C336        C337   1.430       .  A
C336        H341   1.083       .  S
C337        C338   1.418       .  A
C338        C339   1.404       .  A
C338        H342   1.084       .  S
C339        C904   1.474       .  S
C339        C340   1.389       .  A
C340       H1047   1.086       .  S
H343       C1044   1.086   1_545  S
C344        C345   1.405       .  A
C344        C349   1.384       .  A
C345        C346   1.405       .  A
C345        H350   1.084       .  S
C346        C347   1.387       .  A
C347        C348   1.394       .  A
C347        H351   1.085       .  S
C348        C349   1.383       .  A
C349        H352   1.086       .  S
C353        C401   1.458       .  S
C353       C1058   1.400       .  A
C353       C1766   1.405   1_455  A
C354       C1057   1.400   1_545  A
C354        C355   1.393       .  A
C354        H359   1.085       .  S
C355        C504   1.459       .  S
C355       C1764   1.400   1_455  A
C356       C1763   1.400       .  A
C356       C1061   1.401   1_545  A
C356        H360   1.085       .  S
C357        C460   1.464       .  S
C357       C1060   1.401       .  A
C357        C358   1.407       .  A
C358       C1761   1.405       .  A
C358        H361   1.084       .  S
C362        C471   1.467       .  S
C362        C363   1.411       .  A
C362        C367   1.392       .  A
C363        C364   1.403       .  A
C363        H368   1.084       .  S
C364        C515   1.459       .  S
C364        C365   1.384       .  A
C365        C366   1.395       .  A
C365        H369   1.085       .  S
C366        C390   1.435       .  S
C366        C367   1.396       .  A
C367        H370   1.085       .  S
C371        C656   1.464       .  S
C372        C373   1.398       .  A
C372        H377   1.084       .  S
C373        C434   1.482       .  S
C373        C374   1.410       .  A
C374        C375   1.405       .  A
C374        H378   1.084       .  S
C375        C464   1.464       .  S
C375        C376   1.395       .  A
O380       Ni386   1.938       .  S
O380        C401   1.277       .  A
O381       Ni404   1.852       .  S
O381        C390   1.266       .  A
O382       Ni386   1.884       .  S
O382       Ni404   1.910       .  S
O382       Ni398   1.930       .  S
O382        H405   0.966       .  S
C383        C610   1.477       .  S
C383        O400   1.288       .  A
C383        O392   1.271       .  A
O384       Ni403   1.937       .  S
O384        C390   1.282       .  A
O385       Ni403   1.941       .  S
O385        C387   1.277       .  A
Ni386       O389   1.936       .  S
Ni386       O391   1.914       .  S
C387       C1112   1.504       .  S
C387        O397   1.273       .  A
O388       Ni404   1.927       .  S
O388        C394   1.262       .  A
O389        C394   1.281       .  A
O391        C393   1.272       .  A
O392       Ni403   1.909       .  S
C393       C1823   1.511   1_455  S
C393        O399   1.283       .  A
C394        C687   1.497       .  S
H395        O396   0.968       .  S
O396       Ni404   1.854       .  S
O396       Ni398   1.869       .  S
O396       Ni403   1.887       .  S
O397       Ni398   1.956       .  S
Ni398       O402   1.896       .  S
Ni398       O400   1.933       .  S
O399       Ni404   1.970       .  S
C401        O402   1.271       .  A
C406        C407   1.421       .  A
C406        C411   1.397       .  A
C407        C408   1.439       .  A
C407        H412   1.083       .  S
C408       C1091   1.504   1_545  S
C408        C409   1.420       .  A
C409        C410   1.407       .  A
C409        H413   1.083       .  S
C410        C427   1.495       .  S
C410        C411   1.404       .  A
C411        H414   1.084       .  S
C415       C1801   1.511       .  S
C415        C416   1.422       .  A
C415        C420   1.421       .  A
C416        C417   1.406       .  A
C416        H421   1.083       .  S
C417        C650   1.499       .  S
C417        C418   1.402       .  A
C418        C419   1.403       .  A
C418        H422   1.084       .  S
C419        C438   1.486       .  S
C419        C420   1.419       .  A
C420        H423   1.083       .  S
O424       Ni430   1.905       .  S
O424        C445   1.268       .  A
O425       Ni448   1.917       .  S
O425        C434   1.276       .  A
O426       Ni430   1.893       .  S
O426       Ni448   1.904       .  S
O426       Ni442   1.945       .  S
O426        H449   0.966       .  S
C427        O444   1.292       .  A
C427        O436   1.282       .  A
O428       Ni447   1.929       .  S
O428        C434   1.271       .  A
O429       Ni447   1.900       .  S
O429        C431   1.265       .  A
Ni430       O433   1.930       .  S
Ni430       O435   1.919       .  S
C431        C487   1.512       .  S
C431        O441   1.281       .  A
O432       Ni448   1.946       .  S
O432        C438   1.278       .  A
O433        C438   1.278       .  A
O435        C437   1.271       .  A
O436       Ni447   1.909       .  S
C437        C520   1.524       .  S
C437        O443   1.287       .  A
H439        O440   0.966       .  S
O440       Ni448   1.901       .  S
O440       Ni442   1.910       .  S
O440       Ni447   1.882       .  S
O441       Ni442   1.980       .  S
Ni442       O446   1.941       .  S
Ni442       O444   1.959       .  S
O443       Ni448   1.992       .  S
C445        C480   1.472       .  S
C445        O446   1.279       .  A
O450       Ni456   1.887       .  S
O450        C471   1.265       .  A
O451       Ni474   1.916       .  S
O451        C460   1.271       .  A
O452       Ni456   1.906       .  S
O452       Ni474   1.899       .  S
O452       Ni468   1.966       .  S
O452        H475   0.966       .  S
C453       C1182   1.478       .  S
C453        O470   1.294       .  A
C453       O1166   1.275       .  A
O454       Ni473   1.919       .  S
O454        C460   1.267       .  A
O455       Ni473   1.897       .  S
O455        C457   1.266       .  A
Ni456       O459   1.923       .  S
Ni456       O461   1.884       .  S
C457        C671   1.454       .  S
C457        O467   1.259       .  A
O458       Ni474   1.896       .  S
O458        C464   1.254       .  A
O459        C464   1.261       .  A
O461        C463   1.273       .  A
O462      Ni1177   1.892       .  S
O462       C1157   1.275       .  A
C463        C680   1.492       .  S
C463        O469   1.299       .  A
H465        O466   0.967       .  S
O466       Ni474   1.874       .  S
O466       Ni468   1.894       .  S
O466       Ni473   1.885       .  S
O467       Ni468   1.902       .  S
Ni468       O472   1.930       .  S
Ni468       O470   1.952       .  S
O469       Ni474   1.988       .  S
C471        O472   1.279       .  A
Ni473      O1166   1.892       .  S
C476        C589   1.507       .  S
C476        C477   1.396       .  A
C476        C481   1.412       .  A
C477        C478   1.425       .  A
C477        H482   1.084       .  S
C478       C1157   1.478   1_545  S
C478        C479   1.402       .  A
C479        C480   1.402       .  A
C479        H483   1.084       .  S
C480        C481   1.411       .  A
C481        H484   1.084       .  S
C485        C551   1.494       .  S
C485        C486   1.424       .  A
C485        C490   1.407       .  A
C486        C487   1.420       .  A
C486        H491   1.083       .  S
C487        C488   1.420       .  A
C488        C489   1.406       .  A
C488        H492   1.084       .  S
C489        C508   1.487       .  S
C489        C490   1.396       .  A
C490        H493   1.085       .  S
O494       Ni500   1.898       .  S
O494        C515   1.263       .  A
O495       Ni518   1.912       .  S
O495        C504   1.274       .  A
O496       Ni500   1.887       .  S
O496       Ni518   1.900       .  S
O496       Ni512   1.943       .  S
O496        H519   0.966       .  S
C497       C1930   1.485   1_455  S
C497        O514   1.289       .  A
C497        O506   1.280       .  A
O498       Ni517   1.912       .  S
O498        C504   1.268       .  A
O499       Ni517   1.895       .  S
O499        C501   1.269       .  A
Ni500       O503   1.914       .  S
Ni500       O505   1.912       .  S
C501        C564   1.476       .  S
C501        O511   1.267       .  A
O502       Ni518   1.963       .  S
O502        C508   1.287       .  A
O503        C508   1.273       .  A
O505        C507   1.269       .  A
O506       Ni517   1.898       .  S
C507        C573   1.491       .  S
C507        O513   1.269       .  A
H509        O510   0.967       .  S
O510       Ni518   1.907       .  S
O510       Ni512   1.899       .  S
O510       Ni517   1.864       .  S
O511       Ni512   1.935       .  S
Ni512       O516   1.921       .  S
Ni512       O514   1.950       .  S
O513       Ni518   1.942       .  S
C515        O516   1.275       .  A
C520        C521   1.423       .  A
C520        C525   1.437       .  A
C521        C522   1.404       .  A
C521        H526   1.083       .  S
C522       C1905   1.485       .  S
C522        C523   1.401       .  A
C523       H1935   1.085       .  S
C524        C595   1.517   1_554  S
C525        H528   1.082       .  S
H527       C1931   1.085       .  S
C529        C603   1.479       .  S
C529       C1234   1.411   1_545  A
C529       C1942   1.408       .  A
C530       C1233   1.411       .  A
C530        C531   1.407       .  A
C530        H535   1.084       .  S
C531        C664   1.472       .  S
C531       C1940   1.399       .  A
C532       C1939   1.399   1_455  A
C532       C1237   1.400       .  A
C532        H536   1.085       .  S
C533        C559   1.468       .  S
C533       C1236   1.400   1_545  A
C533        C534   1.405       .  A
C534       C1937   1.408   1_455  A
C534        H537   1.084       .  S
O538       Ni544   1.923       .  S
O538        C559   1.272       .  A
O539       Ni562   1.890       .  S
O539        C548   1.266       .  A
O540       Ni544   1.869       .  S
O540       Ni562   1.894       .  S
O540       Ni556   1.896       .  S
O540        H563   0.966       .  S
C541        C566   1.469       .  S
C541        O558   1.281       .  A
C541        O550   1.267       .  A
O542       Ni561   1.902       .  S
O542        C548   1.264       .  A
O543       Ni561   1.929       .  S
O543        C545   1.278       .  A
Ni544       O547   1.913       .  S
Ni544       O549   1.904       .  S
C545        O555   1.276       .  A
O546       Ni562   1.923       .  S
O546        C552   1.278       .  A
O547        C552   1.284       .  A
C548        C696   1.443       .  S
O549        C551   1.267       .  A
O550       Ni561   1.903       .  S
C551        O557   1.272       .  A
C552       C1395   1.474   1_545  S
H553        O554   0.966       .  S
O554       Ni562   1.918       .  S
O554       Ni556   1.905       .  S
O554       Ni561   1.894       .  S
O555       Ni556   1.968       .  S
Ni556       O560   1.917       .  S
Ni556       O558   1.941       .  S
O557       Ni562   1.952       .  S
C559        O560   1.277       .  A
C565        C566   1.383       .  A
C565        H570   1.085       .  S
C566        C567   1.401       .  A
C567        C568   1.416       .  A
C567        H571   1.084       .  S
C568        C630   1.500       .  S
C568        C569   1.417       .  A
C569        H572   1.083       .  S
C573        C574   1.412       .  A
C573        C578   1.397       .  A
C574        C575   1.421       .  A
C574        H579   1.083       .  S
C575       C1993   1.475   1_455  S
C575        C576   1.408       .  A
C576        C577   1.392       .  A
C576        H580   1.084       .  S
C577        C631   1.470       .  S
C577        C578   1.395       .  A
C578        H581   1.084       .  S
O582       Ni588   1.963       .  S
O582        C603   1.289       .  A
O583       Ni606   1.875       .  S
O583        C592   1.262       .  A
O584       Ni588   1.871       .  S
O584       Ni606   1.868       .  S
O584       Ni600   1.880       .  S
O584        H607   0.967       .  S
C585       C1983   1.475       .  S
C585        O602   1.275       .  A
C585        O594   1.275       .  A
O586       Ni605   1.892       .  S
O586        C592   1.263       .  A
O587       Ni605   1.903       .  S
O587        C589   1.267       .  A
Ni588       O591   1.939       .  S
Ni588       O593   1.959       .  S
C589        O599   1.287       .  A
O590       Ni606   1.915       .  S
O590        C596   1.287       .  A
O591        C596   1.285       .  A
C592        C700   1.424       .  S
O593        C595   1.285       .  A
O594       Ni605   1.913       .  S
C595        O601   1.259       .  A
C596        C682   1.481   1_545  S
H597        O598   0.963       .  S
O598       Ni606   1.937       .  S
O598       Ni600   1.895       .  S
O598       Ni605   1.882       .  S
O599       Ni600   1.978       .  S
Ni600       O604   1.899       .  S
Ni600       O602   1.938       .  S
O601       Ni606   1.938       .  S
C603        O604   1.278       .  A
C608       C2065   1.466   1_455  S
C608        C609   1.405       .  A
C608        C613   1.410       .  A
C611        C612   1.406       .  A
C612        C627   1.468       .  S
C612        C613   1.408       .  A
C613        H616   1.084       .  S
O617       Ni623   1.925       .  S
O617        C638   1.270       .  A
O618       Ni641   1.937       .  S
O618        C627   1.276       .  A
O619       Ni623   1.876       .  S
O619       Ni641   1.908       .  S
O619       Ni635   1.895       .  S
O619        H642   0.967       .  S
C620        C678   1.479       .  S
C620        O637   1.283       .  A
C620        O629   1.279       .  A
O621       Ni640   1.906       .  S
O621        C627   1.265       .  A
O622       Ni640   1.917       .  S
O622        C624   1.268       .  A
Ni623       O626   1.911       .  S
Ni623       O628   1.898       .  S
C624        C689   1.500       .  S
C624        O634   1.276       .  A
O625       Ni641   1.922       .  S
O625        C631   1.283       .  A
O626        C631   1.281       .  A
O628        C630   1.265       .  A
O629       Ni640   1.925       .  S
C630        O636   1.279       .  A
H632        O633   0.967       .  S
O633       Ni641   1.926       .  S
O633       Ni635   1.892       .  S
O633       Ni640   1.885       .  S
O634       Ni635   1.963       .  S
Ni635       O639   1.916       .  S
Ni635       O637   1.946       .  S
O636       Ni641   1.971       .  S
C638        C673   1.477       .  S
C638        O639   1.273       .  A
O643       Ni649   1.915       .  S
O643        C664   1.265       .  A
O644       Ni667   1.906       .  S
O644        C653   1.264       .  A
O645       Ni649   1.884       .  S
O645       Ni667   1.906       .  S
O645       Ni661   1.884       .  S
O645        H668   0.966       .  S
C646        C669   1.451       .  S
C646        O663   1.271       .  A
C646        O655   1.268       .  A
O647       Ni666   1.904       .  S
O647        C653   1.264       .  A
O648       Ni666   1.925       .  S
O648        C650   1.276       .  A
Ni649       O652   1.900       .  S
Ni649       O654   1.902       .  S
C650        O660   1.277       .  A
O651       Ni667   1.919       .  S
O651        C657   1.278       .  A
O652        C657   1.280       .  A
C653        C698   1.455       .  S
O654        C656   1.262       .  A
O655       Ni666   1.907       .  S
C656        O662   1.262       .  A
C657       C2016   1.466       .  S
H658        O659   0.966       .  S
O659       Ni667   1.919       .  S
O659       Ni661   1.911       .  S
O659       Ni666   1.901       .  S
O660       Ni661   1.935       .  S
Ni661       O665   1.932       .  S
Ni661       O663   1.899       .  S
O662       Ni667   1.908       .  S
C664        O665   1.275       .  A
C669        C670   1.385       .  A
C669        C674   1.403       .  A
C670        C671   1.386       .  A
C670        H675   1.086       .  S
C671        C672   1.407       .  A
C672        C673   1.402       .  A
C672        H676   1.084       .  S
C673        C674   1.409       .  A
C674        H677   1.084       .  S
C678        C683   1.402       .  A
C679        C680   1.413       .  A
C679        H684   1.084       .  S
C680        C681   1.399       .  A
C681       C1034   1.414       .  A
C681       H1389   1.083       .  S
C682       C1033   1.414   1_556  A
C682       C1387   1.410       .  A
C683       C1386   1.410       .  A
C683        H686   1.084       .  S
H685       C1385   1.083       .  S
C687        C688   1.424       .  A
C687        C692   1.389       .  A
C688        C689   1.430       .  A
C688        H693   1.083       .  S
C689        C690   1.418       .  A
C690        C691   1.404       .  A
C690        H694   1.084       .  S
C691       C1256   1.474       .  S
C691        C692   1.389       .  A
C692       H1399   1.086       .  S
H695       C1396   1.086   1_545  S
C696        C697   1.405       .  A
C696        C701   1.384       .  A
C697        C698   1.405       .  A
C697        H702   1.084       .  S
C698        C699   1.387       .  A
C699        C700   1.394       .  A
C699        H703   1.085       .  S
C700        C701   1.383       .  A
C701        H704   1.086       .  S
C705        C753   1.459       .  S
C705       C2118   1.405   1_455  A
C706        C707   1.393       .  A
C706        H711   1.085       .  S
C707        C856   1.459       .  S
C707       C2116   1.400   1_455  A
C708       C2115   1.400       .  A
C708        H712   1.085       .  S
C709        C812   1.464       .  S
C709        C710   1.407       .  A
C710       C2113   1.405       .  A
C710        H713   1.084       .  S
C714        C823   1.467       .  S
C714        C715   1.411       .  A
C714        C719   1.392       .  A
C715        C716   1.403       .  A
C715        H720   1.084       .  S
C716        C867   1.459       .  S
C716        C717   1.384       .  A
C717        C718   1.395       .  A
C717        H721   1.085       .  S
C718        C742   1.436       .  S
C718        C719   1.396       .  A
C719        H722   1.085       .  S
C723       C1008   1.464       .  S
C723       C1076   1.407       .  A
C723       C1080   1.400       .  A
C724       C1075   1.407   1_554  A
C724        C725   1.398       .  A
C724        H729   1.084       .  S
C725        C786   1.482       .  S
C725        C726   1.410       .  A
C726        C727   1.405       .  A
C726        H730   1.084       .  S
C727        C816   1.465       .  S
C727        C728   1.395       .  A
C728       C1075   1.400   1_554  A
C728       H1083   1.084   1_554  S
H731       C1080   1.084       .  S
O732       Ni738   1.938       .  S
O732        C753   1.277       .  A
O733       Ni756   1.852       .  S
O733        C742   1.266       .  A
O734       Ni738   1.884       .  S
O734       Ni756   1.910       .  S
O734       Ni750   1.930       .  S
O734        H757   0.966       .  S
C735        C962   1.477   1_554  S
C735        O752   1.288       .  A
C735        O744   1.271       .  A
O736       Ni755   1.937       .  S
O736        C742   1.282       .  A
O737       Ni755   1.941       .  S
O737        C739   1.277       .  A
Ni738       O741   1.936       .  S
Ni738       O743   1.914       .  S
C739        O749   1.273       .  A
O740       Ni756   1.927       .  S
O740        C746   1.262       .  A
O741        C746   1.281       .  A
O743        C745   1.272       .  A
O744       Ni755   1.909       .  S
C745       C2175   1.511   1_455  S
C745        O751   1.283       .  A
C746       C1039   1.497       .  S
H747        O748   0.968       .  S
O748       Ni756   1.854       .  S
O748       Ni750   1.869       .  S
O748       Ni755   1.887       .  S
O749       Ni750   1.956       .  S
Ni750       O754   1.896       .  S
Ni750       O752   1.933       .  S
O751       Ni756   1.970       .  S
C753        O754   1.271       .  A
C758       C1249   1.522   1_554  S
C758        C759   1.421       .  A
C758        C763   1.397       .  A
C759        C760   1.439       .  A
C759        H764   1.083       .  S
C760        C761   1.420       .  A
C761        C762   1.407       .  A
C761        H765   1.083       .  S
C762        C779   1.495       .  S
C762        C763   1.404       .  A
C763        H766   1.084       .  S
C767       C2153   1.511       .  S
C767        C768   1.422       .  A
C767        C772   1.421       .  A
C768        C769   1.406       .  A
C768        H773   1.083       .  S
C769       C1002   1.499       .  S
C769        C770   1.402       .  A
C770        C771   1.403       .  A
C770        H774   1.084       .  S
C771        C790   1.486       .  S
C771        C772   1.419       .  A
C772        H775   1.083       .  S
O776       Ni782   1.905       .  S
O776        C797   1.268       .  A
O777       Ni800   1.917       .  S
O777        C786   1.276       .  A
O778       Ni782   1.893       .  S
O778       Ni800   1.904       .  S
O778       Ni794   1.945       .  S
O778        H801   0.966       .  S
C779        O796   1.292       .  A
C779        O788   1.282       .  A
O780       Ni799   1.929       .  S
O780        C786   1.271       .  A
O781       Ni799   1.900       .  S
O781        C783   1.265       .  A
Ni782       O785   1.930       .  S
Ni782       O787   1.919       .  S
C783        C839   1.512       .  S
C783        O793   1.281       .  A
O784       Ni800   1.946       .  S
O784        C790   1.278       .  A
O785        C790   1.278       .  A
O787        C789   1.271       .  A
O788       Ni799   1.909       .  S
C789        C872   1.524       .  S
C789        O795   1.287       .  A
H791        O792   0.966       .  S
O792       Ni800   1.900       .  S
O792       Ni794   1.910       .  S
O792       Ni799   1.882       .  S
O793       Ni794   1.980       .  S
Ni794       O798   1.942       .  S
Ni794       O796   1.959       .  S
O795       Ni800   1.992       .  S
C797        C832   1.472       .  S
C797        O798   1.279       .  A
O802       Ni808   1.887       .  S
O802        C823   1.265       .  A
O803       Ni826   1.916       .  S
O803        C812   1.271       .  A
O804       Ni808   1.906       .  S
O804       Ni826   1.899       .  S
O804       Ni820   1.966       .  S
O804        H827   0.966       .  S
C805        O822   1.294       .  A
O806       Ni825   1.919       .  S
O806        C812   1.267       .  A
O807       Ni825   1.897       .  S
O807        C809   1.266       .  A
Ni808       O811   1.923       .  S
Ni808       O813   1.884       .  S
C809       C1023   1.454       .  S
C809        O819   1.259       .  A
O810       Ni826   1.896       .  S
O810        C816   1.254       .  A
O811        C816   1.262       .  A
O813        C815   1.273       .  A
C815       C1032   1.492       .  S
C815        O821   1.300       .  A
H817        O818   0.967       .  S
O818       Ni826   1.874       .  S
O818       Ni820   1.894       .  S
O818       Ni825   1.885       .  S
O819       Ni820   1.902       .  S
Ni820       O824   1.930       .  S
Ni820       O822   1.952       .  S
O821       Ni826   1.988       .  S
C823        O824   1.279       .  A
C828        C941   1.507       .  S
C828        C829   1.396       .  A
C828        C833   1.412       .  A
C829        C830   1.425       .  A
C829        H834   1.084       .  S
C830        C831   1.402       .  A
C831        C832   1.402       .  A
C831        H835   1.084       .  S
C832        C833   1.411       .  A
C833        H836   1.084       .  S
C837        C903   1.494       .  S
C837        C838   1.424       .  A
C837        C842   1.407       .  A
C838        C839   1.420       .  A
C838        H843   1.083       .  S
C839        C840   1.420       .  A
C840        C841   1.405       .  A
C840        H844   1.084       .  S
C841        C860   1.487       .  S
C841        C842   1.395       .  A
C842        H845   1.085       .  S
O846       Ni852   1.898       .  S
O846        C867   1.263       .  A
O847       Ni870   1.912       .  S
O847        C856   1.274       .  A
O848       Ni852   1.887       .  S
O848       Ni870   1.900       .  S
O848       Ni864   1.944       .  S
O848        H871   0.966       .  S
C849       C2282   1.485   1_455  S
C849        O866   1.289       .  A
C849        O858   1.280       .  A
O850       Ni869   1.912       .  S
O850        C856   1.268       .  A
O851       Ni869   1.895       .  S
O851        C853   1.269       .  A
Ni852       O855   1.914       .  S
Ni852       O857   1.912       .  S
C853        C916   1.476       .  S
C853        O863   1.267       .  A
O854       Ni870   1.963       .  S
O854        C860   1.287       .  A
O855        C860   1.273       .  A
O857        C859   1.269       .  A
O858       Ni869   1.898       .  S
C859        C925   1.491       .  S
C859        O865   1.269       .  A
H861        O862   0.967       .  S
O862       Ni870   1.907       .  S
O862       Ni864   1.899       .  S
O862       Ni869   1.864       .  S
O863       Ni864   1.935       .  S
Ni864       O868   1.921       .  S
Ni864       O866   1.950       .  S
O865       Ni870   1.942       .  S
C867        O868   1.275       .  A
C872        C873   1.423       .  A
C872        C877   1.437       .  A
C873        C874   1.404       .  A
C873        H878   1.083       .  S
C874       C2257   1.485       .  S
C874        C875   1.401       .  A
C875       C1228   1.388       .  A
C875       H2287   1.085       .  S
C876        C947   1.517       .  S
C876       C1227   1.388       .  A
C876       C1229   1.438       .  A
C877       C1228   1.438       .  A
C877        H880   1.082       .  S
H879       C2283   1.085       .  S
C881        C955   1.479       .  S
C881       C2294   1.408       .  A
C882        C883   1.407       .  A
C882        H887   1.084       .  S
C883       C1016   1.472       .  S
C883       C2292   1.399       .  A
C884       C2291   1.399   1_455  A
C884        H888   1.085       .  S
C885        C911   1.468       .  S
C885        C886   1.405       .  A
C886       C2289   1.408   1_455  A
C886        H889   1.084       .  S
O890       Ni896   1.923       .  S
O890        C911   1.272       .  A
O891       Ni914   1.890       .  S
O891        C900   1.266       .  A
O892       Ni896   1.869       .  S
O892       Ni914   1.894       .  S
O892       Ni908   1.896       .  S
O892        H915   0.966       .  S
C893        C918   1.469       .  S
C893        O910   1.281       .  A
C893        O902   1.267       .  A
O894       Ni913   1.902       .  S
O894        C900   1.264       .  A
O895       Ni913   1.929       .  S
O895        C897   1.278       .  A
Ni896       O899   1.913       .  S
Ni896       O901   1.904       .  S
C897       C1110   1.522       .  S
C897        O907   1.276       .  A
O898       Ni914   1.923       .  S
O898        C904   1.278       .  A
O899        C904   1.284       .  A
C900       C1048   1.443       .  S
O901        C903   1.267       .  A
O902       Ni913   1.903       .  S
C903        O909   1.272       .  A
H905        O906   0.966       .  S
O906       Ni914   1.918       .  S
O906       Ni908   1.905       .  S
O906       Ni913   1.894       .  S
O907       Ni908   1.968       .  S
Ni908       O912   1.918       .  S
Ni908       O910   1.941       .  S
O909       Ni914   1.952       .  S
C911        O912   1.277       .  A
C916       C1269   1.398   1_554  A
C916       C1273   1.421   1_554  A
C917       C1268   1.398       .  A
C917        C918   1.383       .  A
C917        H922   1.085       .  S
C918        C919   1.401       .  A
C919        C920   1.416       .  A
C919        H923   1.084       .  S
C920        C982   1.499       .  S
C920        C921   1.417       .  A
C921       C1268   1.421       .  A
C921        H924   1.083       .  S
C925        C926   1.412       .  A
C925        C930   1.397       .  A
C926        C927   1.421       .  A
C926        H931   1.083       .  S
C927       C2345   1.475   1_455  S
C927        C928   1.408       .  A
C928        C929   1.392       .  A
C928        H932   1.084       .  S
C929        C983   1.470       .  S
C929        C930   1.395       .  A
C930        H933   1.084       .  S
O934       Ni940   1.963       .  S
O934        C955   1.289       .  A
O935       Ni958   1.875       .  S
O935        C944   1.262       .  A
O936       Ni940   1.871       .  S
O936       Ni958   1.868       .  S
O936       Ni952   1.880       .  S
O936        H959   0.967       .  S
C937       C2335   1.475       .  S
C937        O954   1.275       .  A
C937        O946   1.275       .  A
O938       Ni957   1.892       .  S
O938        C944   1.263       .  A
O939       Ni957   1.903       .  S
O939        C941   1.267       .  A
Ni940       O943   1.939       .  S
Ni940       O945   1.959       .  S
C941        O951   1.287       .  A
O942       Ni958   1.915       .  S
O942        C948   1.287       .  A
O943        C948   1.285       .  A
C944       C1052   1.424       .  S
O945        C947   1.285       .  A
O946       Ni957   1.913       .  S
C947        O953   1.259       .  A
C948       C1034   1.481       .  S
H949        O950   0.963       .  S
O950       Ni958   1.937       .  S
O950       Ni952   1.895       .  S
O950       Ni957   1.882       .  S
O951       Ni952   1.978       .  S
Ni952       O956   1.899       .  S
Ni952       O954   1.938       .  S
O953       Ni958   1.938       .  S
C955        O956   1.278       .  A
C960       C2417   1.466   1_455  S
C960        C961   1.405       .  A
C960        C965   1.410       .  A
C961       C1314   1.381       .  A
C961       H1318   1.085       .  S
C962       C1313   1.381       .  A
C962       C1315   1.402       .  A
C963       C1314   1.402       .  A
C963        C964   1.406       .  A
C963       H1319   1.085       .  S
C964        C979   1.468       .  S
C964        C965   1.408       .  A
C965        H968   1.084       .  S
H966       C1313   1.085   1_554  S
H967       C1315   1.085       .  S
O969       Ni975   1.925       .  S
O969        C990   1.270       .  A
O970       Ni993   1.937       .  S
O970        C979   1.276       .  A
O971       Ni975   1.876       .  S
O971       Ni993   1.908       .  S
O971       Ni987   1.895       .  S
O971        H994   0.967       .  S
C972       C1030   1.479       .  S
C972        O989   1.283       .  A
C972        O981   1.279       .  A
O973       Ni992   1.906       .  S
O973        C979   1.265       .  A
O974       Ni992   1.918       .  S
O974        C976   1.268       .  A
Ni975       O978   1.911       .  S
Ni975       O980   1.898       .  S
C976       C1041   1.500       .  S
C976        O986   1.276       .  A
O977       Ni993   1.922       .  S
O977        C983   1.283       .  A
O978        C983   1.281       .  A
O980        C982   1.265       .  A
O981       Ni992   1.925       .  S
C982        O988   1.279       .  A
H984        O985   0.967       .  S
O985       Ni993   1.926       .  S
O985       Ni987   1.892       .  S
O985       Ni992   1.885       .  S
O986       Ni987   1.963       .  S
Ni987       O991   1.916       .  S
Ni987       O989   1.946       .  S
O988       Ni993   1.971       .  S
C990       C1025   1.477       .  S
C990        O991   1.273       .  A
O995      Ni1001   1.915       .  S
O995       C1016   1.265       .  A
O996      Ni1019   1.906       .  S
O996       C1005   1.264       .  A
O997      Ni1001   1.884       .  S
O997      Ni1019   1.906       .  S
O997      Ni1013   1.884       .  S
O997       H1020   0.966       .  S
C998       C1021   1.451       .  S
C998       O1015   1.271       .  A
C998       O1007   1.268       .  A
O999      Ni1018   1.904       .  S
O999       C1005   1.264       .  A
O1000     Ni1018   1.925       .  S
O1000      C1002   1.276       .  A
Ni1001     O1004   1.900       .  S
Ni1001     O1006   1.902       .  S
C1002      O1012   1.277       .  A
O1003     Ni1019   1.919       .  S
O1003      C1009   1.278       .  A
O1004      C1009   1.280       .  A
C1005      C1050   1.455       .  S
O1006      C1008   1.262       .  A
O1007     Ni1018   1.907       .  S
C1008      O1014   1.262       .  A
C1009      C2368   1.466       .  S
H1010      O1011   0.966       .  S
O1011     Ni1019   1.919       .  S
O1011     Ni1013   1.911       .  S
O1011     Ni1018   1.901       .  S
O1012     Ni1013   1.935       .  S
Ni1013     O1017   1.932       .  S
Ni1013     O1015   1.900       .  S
O1014     Ni1019   1.908       .  S
C1016      O1017   1.275       .  A
C1021      C1022   1.385       .  A
C1021      C1026   1.403       .  A
C1022      C1023   1.386       .  A
C1022      H1027   1.085       .  S
C1023      C1024   1.407       .  A
C1024      C1025   1.402       .  A
C1024      H1028   1.084       .  S
C1025      C1026   1.409       .  A
C1026      H1029   1.084       .  S
C1030      C1383   1.405       .  A
C1030      C1035   1.402       .  A
C1031      C1382   1.405       .  A
C1031      C1032   1.413   1_556  A
C1031      H1036   1.084   1_556  S
C1032      C1033   1.398       .  A
C1035      H1038   1.084       .  S
C1039      C1040   1.424       .  A
C1039      C1044   1.389       .  A
C1040      C1041   1.430       .  A
C1040      H1045   1.083       .  S
C1041      C1042   1.418       .  A
C1042      C1043   1.404       .  A
C1042      H1046   1.084       .  S
C1043      C1044   1.389       .  A
C1048      C1049   1.405       .  A
C1048      C1053   1.384       .  A
C1049      C1050   1.405       .  A
C1049      H1054   1.084       .  S
C1050      C1051   1.387       .  A
C1051      C1052   1.394       .  A
C1051      H1055   1.085       .  S
C1052      C1053   1.383       .  A
C1053      H1056   1.086       .  S
C1057      C1105   1.459       .  S
C1057      C2470   1.405   1_455  A
C1058      C1059   1.393       .  A
C1058      H1063   1.085       .  S
C1059      C1208   1.459       .  S
C1059      C2468   1.400   1_455  A
C1060      C2467   1.400       .  A
C1060      H1064   1.085       .  S
C1061      C1164   1.464       .  S
C1061      C1062   1.407       .  A
C1062      C2465   1.405       .  A
C1062      H1065   1.084       .  S
C1066      C1175   1.467       .  S
C1066      C1067   1.411       .  A
C1066      C1071   1.392       .  A
C1067      C1068   1.403       .  A
C1067      H1072   1.084       .  S
C1068      C1219   1.459       .  S
C1068      C1069   1.384       .  A
C1069      C1070   1.395       .  A
C1069      H1073   1.085       .  S
C1070      C1094   1.436       .  S
C1070      C1071   1.396       .  A
C1071      H1074   1.085       .  S
C1075      C1360   1.464       .  S
C1076      C1077   1.398       .  A
C1076      H1081   1.084       .  S
C1077      C1138   1.482       .  S
C1077      C1078   1.410       .  A
C1078      C1079   1.405       .  A
C1078      H1082   1.084       .  S
C1079      C1168   1.465       .  S
C1079      C1080   1.395       .  A
O1084     Ni1090   1.938       .  S
O1084      C1105   1.277       .  A
O1085     Ni1108   1.852       .  S
O1085      C1094   1.266       .  A
O1086     Ni1090   1.884       .  S
O1086     Ni1108   1.910       .  S
O1086     Ni1102   1.930       .  S
O1086      H1109   0.966       .  S
C1087      C1314   1.477       .  S
C1087      O1104   1.288       .  A
C1087      O1096   1.271       .  A
O1088     Ni1107   1.937       .  S
O1088      C1094   1.282       .  A
O1089     Ni1107   1.941       .  S
O1089      C1091   1.277       .  A
Ni1090     O1093   1.936       .  S
Ni1090     O1095   1.914       .  S
C1091      O1101   1.273       .  A
O1092     Ni1108   1.927       .  S
O1092      C1098   1.262       .  A
O1093      C1098   1.281       .  A
O1095      C1097   1.272       .  A
O1096     Ni1107   1.909       .  S
C1097      C2527   1.511   1_455  S
C1097      O1103   1.283       .  A
C1098      C1391   1.497       .  S
H1099      O1100   0.968       .  S
O1100     Ni1108   1.854       .  S
O1100     Ni1102   1.869       .  S
O1100     Ni1107   1.887       .  S
O1101     Ni1102   1.956       .  S
Ni1102     O1106   1.896       .  S
Ni1102     O1104   1.933       .  S
O1103     Ni1108   1.970       .  S
C1105      O1106   1.271       .  A
C1110      C1111   1.421       .  A
C1110      C1115   1.397       .  A
C1111      C1112   1.439       .  A
C1111      H1116   1.083       .  S
C1112      C1113   1.420       .  A
C1113      C1114   1.407       .  A
C1113      H1117   1.083       .  S
C1114      C1131   1.495       .  S
C1114      C1115   1.404       .  A
C1115      H1118   1.084       .  S
C1119      C2505   1.511       .  S
C1119      C1120   1.422       .  A
C1119      C1124   1.421       .  A
C1120      C1121   1.406       .  A
C1120      H1125   1.083       .  S
C1121      C1354   1.499       .  S
C1121      C1122   1.402       .  A
C1122      C1123   1.403       .  A
C1122      H1126   1.084       .  S
C1123      C1142   1.486       .  S
C1123      C1124   1.419       .  A
C1124      H1127   1.083       .  S
O1128     Ni1134   1.905       .  S
O1128      C1149   1.268       .  A
O1129     Ni1152   1.917       .  S
O1129      C1138   1.276       .  A
O1130     Ni1134   1.893       .  S
O1130     Ni1152   1.904       .  S
O1130     Ni1146   1.945       .  S
O1130      H1153   0.966       .  S
C1131      O1148   1.292       .  A
C1131      O1140   1.282       .  A
O1132     Ni1151   1.929       .  S
O1132      C1138   1.271       .  A
O1133     Ni1151   1.900       .  S
O1133      C1135   1.265       .  A
Ni1134     O1137   1.930       .  S
Ni1134     O1139   1.919       .  S
C1135      C1191   1.512       .  S
C1135      O1145   1.281       .  A
O1136     Ni1152   1.946       .  S
O1136      C1142   1.278       .  A
O1137      C1142   1.278       .  A
O1139      C1141   1.271       .  A
O1140     Ni1151   1.909       .  S
C1141      C1224   1.524       .  S
C1141      O1147   1.287       .  A
H1143      O1144   0.966       .  S
O1144     Ni1152   1.900       .  S
O1144     Ni1146   1.910       .  S
O1144     Ni1151   1.882       .  S
O1145     Ni1146   1.980       .  S
Ni1146     O1150   1.941       .  S
Ni1146     O1148   1.959       .  S
O1147     Ni1152   1.992       .  S
C1149      C1184   1.472       .  S
C1149      O1150   1.279       .  A
O1154     Ni1160   1.887       .  S
O1154      C1175   1.265       .  A
O1155     Ni1178   1.916       .  S
O1155      C1164   1.271       .  A
O1156     Ni1160   1.906       .  S
O1156     Ni1178   1.899       .  S
O1156     Ni1172   1.966       .  S
O1156      H1179   0.966       .  S
C1157      O1174   1.294       .  A
O1158     Ni1177   1.919       .  S
O1158      C1164   1.267       .  A
O1159     Ni1177   1.897       .  S
O1159      C1161   1.266       .  A
Ni1160     O1163   1.923       .  S
Ni1160     O1165   1.884       .  S
C1161      C1375   1.454       .  S
C1161      O1171   1.259       .  A
O1162     Ni1178   1.896       .  S
O1162      C1168   1.254       .  A
O1163      C1168   1.262       .  A
O1165      C1167   1.273       .  A
C1167      C1384   1.492       .  S
C1167      O1173   1.300       .  A
H1169      O1170   0.967       .  S
O1170     Ni1178   1.874       .  S
O1170     Ni1172   1.894       .  S
O1170     Ni1177   1.885       .  S
O1171     Ni1172   1.902       .  S
Ni1172     O1176   1.930       .  S
Ni1172     O1174   1.952       .  S
O1173     Ni1178   1.988       .  S
C1175      O1176   1.279       .  A
C1180      C1293   1.507       .  S
C1180      C1181   1.396       .  A
C1180      C1185   1.412       .  A
C1181      C1182   1.425       .  A
C1181      H1186   1.084       .  S
C1182      C1183   1.402       .  A
C1183      C1184   1.402       .  A
C1183      H1187   1.084       .  S
C1184      C1185   1.411       .  A
C1185      H1188   1.084       .  S
C1189      C1255   1.494       .  S
C1189      C1190   1.424       .  A
C1189      C1194   1.407       .  A
C1190      C1191   1.420       .  A
C1190      H1195   1.083       .  S
C1191      C1192   1.420       .  A
C1192      C1193   1.405       .  A
C1192      H1196   1.084       .  S
C1193      C1212   1.487       .  S
C1193      C1194   1.396       .  A
C1194      H1197   1.085       .  S
O1198     Ni1204   1.898       .  S
O1198      C1219   1.263       .  A
O1199     Ni1222   1.912       .  S
O1199      C1208   1.274       .  A
O1200     Ni1204   1.887       .  S
O1200     Ni1222   1.900       .  S
O1200     Ni1216   1.944       .  S
O1200      H1223   0.966       .  S
C1201      C2634   1.485   1_455  S
C1201      O1218   1.289       .  A
C1201      O1210   1.280       .  A
O1202     Ni1221   1.912       .  S
O1202      C1208   1.268       .  A
O1203     Ni1221   1.895       .  S
O1203      C1205   1.269       .  A
Ni1204     O1207   1.914       .  S
Ni1204     O1209   1.912       .  S
C1205      C1268   1.476       .  S
C1205      O1215   1.267       .  A
O1206     Ni1222   1.963       .  S
O1206      C1212   1.287       .  A
O1207      C1212   1.273       .  A
O1209      C1211   1.269       .  A
O1210     Ni1221   1.898       .  S
C1211      C1277   1.491       .  S
C1211      O1217   1.269       .  A
H1213      O1214   0.967       .  S
O1214     Ni1222   1.907       .  S
O1214     Ni1216   1.899       .  S
O1214     Ni1221   1.864       .  S
O1215     Ni1216   1.935       .  S
Ni1216     O1220   1.921       .  S
Ni1216     O1218   1.950       .  S
O1217     Ni1222   1.942       .  S
C1219      O1220   1.275       .  A
C1224      C1225   1.423       .  A
C1224      C1229   1.437       .  A
C1225      C1226   1.404       .  A
C1225      H1230   1.083       .  S
C1226      C2609   1.485       .  S
C1226      C1227   1.401       .  A
C1227      H2639   1.085       .  S
C1228      C1299   1.517   1_554  S
C1229      H1232   1.082       .  S
H1231      C2635   1.085       .  S
C1233      C1307   1.479       .  S
C1233      C2646   1.408       .  A
C1234      C1235   1.407       .  A
C1234      H1239   1.084       .  S
C1235      C1368   1.472       .  S
C1235      C2644   1.399       .  A
C1236      C2643   1.399   1_455  A
C1236      H1240   1.085       .  S
C1237      C1263   1.468       .  S
C1237      C1238   1.405       .  A
C1238      C2641   1.408   1_455  A
C1238      H1241   1.084       .  S
O1242     Ni1248   1.923       .  S
O1242      C1263   1.272       .  A
O1243     Ni1266   1.890       .  S
O1243      C1252   1.266       .  A
O1244     Ni1248   1.869       .  S
O1244     Ni1266   1.894       .  S
O1244     Ni1260   1.896       .  S
O1244      H1267   0.966       .  S
C1245      C1270   1.469       .  S
C1245      O1262   1.281       .  A
C1245      O1254   1.267       .  A
O1246     Ni1265   1.902       .  S
O1246      C1252   1.264       .  A
O1247     Ni1265   1.929       .  S
O1247      C1249   1.278       .  A
Ni1248     O1251   1.913       .  S
Ni1248     O1253   1.904       .  S
C1249      O1259   1.276       .  A
O1250     Ni1266   1.923       .  S
O1250      C1256   1.278       .  A
O1251      C1256   1.284       .  A
C1252      C1400   1.443       .  S
O1253      C1255   1.267       .  A
O1254     Ni1265   1.903       .  S
C1255      O1261   1.272       .  A
H1257      O1258   0.966       .  S
O1258     Ni1266   1.918       .  S
O1258     Ni1260   1.905       .  S
O1258     Ni1265   1.894       .  S
O1259     Ni1260   1.968       .  S
Ni1260     O1264   1.918       .  S
Ni1260     O1262   1.941       .  S
O1261     Ni1266   1.952       .  S
C1263      O1264   1.277       .  A
C1269      C1270   1.383       .  A
C1269      H1274   1.085       .  S
C1270      C1271   1.401       .  A
C1271      C1272   1.416       .  A
C1271      H1275   1.084       .  S
C1272      C1334   1.500       .  S
C1272      C1273   1.417       .  A
C1273      H1276   1.083       .  S
C1277      C1278   1.412       .  A
C1277      C1282   1.397       .  A
C1278      C1279   1.421       .  A
C1278      H1283   1.083       .  S
C1279      C2697   1.475   1_455  S
C1279      C1280   1.408       .  A
C1280      C1281   1.392       .  A
C1280      H1284   1.084       .  S
C1281      C1335   1.470       .  S
C1281      C1282   1.395       .  A
C1282      H1285   1.084       .  S
O1286     Ni1292   1.963       .  S
O1286      C1307   1.289       .  A
O1287     Ni1310   1.875       .  S
O1287      C1296   1.262       .  A
O1288     Ni1292   1.871       .  S
O1288     Ni1310   1.868       .  S
O1288     Ni1304   1.880       .  S
O1288      H1311   0.967       .  S
C1289      C2687   1.475       .  S
C1289      O1306   1.275       .  A
C1289      O1298   1.275       .  A
O1290     Ni1309   1.892       .  S
O1290      C1296   1.263       .  A
O1291     Ni1309   1.903       .  S
O1291      C1293   1.267       .  A
Ni1292     O1295   1.939       .  S
Ni1292     O1297   1.959       .  S
C1293      O1303   1.287       .  A
O1294     Ni1310   1.915       .  S
O1294      C1300   1.287       .  A
O1295      C1300   1.285       .  A
C1296      C1404   1.424       .  S
O1297      C1299   1.285       .  A
O1298     Ni1309   1.913       .  S
C1299      O1305   1.259       .  A
C1300      C1386   1.481       .  S
H1301      O1302   0.963       .  S
O1302     Ni1310   1.937       .  S
O1302     Ni1304   1.895       .  S
O1302     Ni1309   1.882       .  S
O1303     Ni1304   1.978       .  S
Ni1304     O1308   1.899       .  S
Ni1304     O1306   1.938       .  S
O1305     Ni1310   1.938       .  S
C1307      O1308   1.278       .  A
C1312      C2769   1.466   1_455  S
C1312      C1313   1.405       .  A
C1312      C1317   1.410       .  A
C1315      C1316   1.406       .  A
C1316      C1331   1.468       .  S
C1316      C1317   1.408       .  A
C1317      H1320   1.084       .  S
O1321     Ni1327   1.925       .  S
O1321      C1342   1.270       .  A
O1322     Ni1345   1.937       .  S
O1322      C1331   1.276       .  A
O1323     Ni1327   1.876       .  S
O1323     Ni1345   1.908       .  S
O1323     Ni1339   1.895       .  S
O1323      H1346   0.967       .  S
C1324      C1382   1.479       .  S
C1324      O1341   1.283       .  A
C1324      O1333   1.279       .  A
O1325     Ni1344   1.906       .  S
O1325      C1331   1.265       .  A
O1326     Ni1344   1.918       .  S
O1326      C1328   1.268       .  A
Ni1327     O1330   1.911       .  S
Ni1327     O1332   1.898       .  S
C1328      C1393   1.500       .  S
C1328      O1338   1.276       .  A
O1329     Ni1345   1.922       .  S
O1329      C1335   1.283       .  A
O1330      C1335   1.281       .  A
O1332      C1334   1.265       .  A
O1333     Ni1344   1.925       .  S
C1334      O1340   1.279       .  A
H1336      O1337   0.967       .  S
O1337     Ni1345   1.926       .  S
O1337     Ni1339   1.892       .  S
O1337     Ni1344   1.885       .  S
O1338     Ni1339   1.963       .  S
Ni1339     O1343   1.916       .  S
Ni1339     O1341   1.946       .  S
O1340     Ni1345   1.971       .  S
C1342      C1377   1.477       .  S
C1342      O1343   1.273       .  A
O1347     Ni1353   1.915       .  S
O1347      C1368   1.265       .  A
O1348     Ni1371   1.906       .  S
O1348      C1357   1.264       .  A
O1349     Ni1353   1.884       .  S
O1349     Ni1371   1.906       .  S
O1349     Ni1365   1.884       .  S
O1349      H1372   0.966       .  S
C1350      C1373   1.451       .  S
C1350      O1367   1.271       .  A
C1350      O1359   1.268       .  A
O1351     Ni1370   1.904       .  S
O1351      C1357   1.264       .  A
O1352     Ni1370   1.925       .  S
O1352      C1354   1.276       .  A
Ni1353     O1356   1.900       .  S
Ni1353     O1358   1.902       .  S
C1354      O1364   1.277       .  A
O1355     Ni1371   1.919       .  S
O1355      C1361   1.278       .  A
O1356      C1361   1.280       .  A
C1357      C1402   1.455       .  S
O1358      C1360   1.262       .  A
O1359     Ni1370   1.907       .  S
C1360      O1366   1.262       .  A
C1361      C2720   1.466       .  S
H1362      O1363   0.966       .  S
O1363     Ni1371   1.918       .  S
O1363     Ni1365   1.911       .  S
O1363     Ni1370   1.901       .  S
O1364     Ni1365   1.935       .  S
Ni1365     O1369   1.932       .  S
Ni1365     O1367   1.900       .  S
O1366     Ni1371   1.908       .  S
C1368      O1369   1.275       .  A
C1373      C1374   1.385       .  A
C1373      C1378   1.403       .  A
C1374      C1375   1.386       .  A
C1374      H1379   1.085       .  S
C1375      C1376   1.407       .  A
C1376      C1377   1.402       .  A
C1376      H1380   1.084       .  S
C1377      C1378   1.409       .  A
C1378      H1381   1.084       .  S
C1382      C1387   1.402       .  A
C1383      C1384   1.413       .  A
C1383      H1388   1.084       .  S
C1384      C1385   1.399       .  A
C1387      H1390   1.084       .  S
C1391      C1392   1.424       .  A
C1391      C1396   1.389       .  A
C1392      C1393   1.430       .  A
C1392      H1397   1.083       .  S
C1393      C1394   1.418       .  A
C1394      C1395   1.404       .  A
C1394      H1398   1.084       .  S
C1395      C1396   1.389       .  A
C1400      C1401   1.405       .  A
C1400      C1405   1.384       .  A
C1401      C1402   1.405       .  A
C1401      H1406   1.084       .  S
C1402      C1403   1.387       .  A
C1403      C1404   1.394       .  A
C1403      H1407   1.085       .  S
C1404      C1405   1.383       .  A
C1405      H1408   1.086       .  S
C1409      C1457   1.458       .  S
C1409      C2114   1.400       .  A
C1410      C2113   1.400   1_545  A
C1410      C1411   1.393       .  A
C1410      H1415   1.085       .  S
C1411      C1560   1.459       .  S
C1412      C2117   1.401   1_545  A
C1412      H1416   1.085       .  S
C1413      C1516   1.464       .  S
C1413      C2116   1.401       .  A
C1413      C1414   1.407       .  A
C1414      H1417   1.084       .  S
C1418      C1527   1.467       .  S
C1418      C1419   1.411       .  A
C1418      C1423   1.392       .  A
C1419      C1420   1.403       .  A
C1419      H1424   1.084       .  S
C1420      C1571   1.459       .  S
C1420      C1421   1.384       .  A
C1421      C1422   1.395       .  A
C1421      H1425   1.085       .  S
C1422      C1446   1.435       .  S
C1422      C1423   1.396       .  A
C1423      H1426   1.085       .  S
C1427      C1712   1.464       .  S
C1427      C1780   1.407       .  A
C1427      C1784   1.400       .  A
C1428      C1779   1.407   1_554  A
C1428      C1429   1.398       .  A
C1428      H1433   1.084       .  S
C1429      C1490   1.482       .  S
C1429      C1430   1.410       .  A
C1430      C1431   1.405       .  A
C1430      H1434   1.084       .  S
C1431      C1520   1.464       .  S
C1431      C1432   1.395       .  A
C1432      C1779   1.400   1_554  A
C1432      H1787   1.084   1_554  S
H1435      C1784   1.084       .  S
O1436     Ni1442   1.938       .  S
O1436      C1457   1.277       .  A
O1437     Ni1460   1.852       .  S
O1437      C1446   1.266       .  A
O1438     Ni1442   1.884       .  S
O1438     Ni1460   1.910       .  S
O1438     Ni1454   1.930       .  S
O1438      H1461   0.966       .  S
C1439      C1666   1.477   1_554  S
C1439      O1456   1.288       .  A
C1439      O1448   1.271       .  A
O1440     Ni1459   1.937       .  S
O1440      C1446   1.282       .  A
O1441     Ni1459   1.941       .  S
O1441      C1443   1.277       .  A
Ni1442     O1445   1.936       .  S
Ni1442     O1447   1.914       .  S
C1443      C2168   1.504       .  S
C1443      O1453   1.273       .  A
O1444     Ni1460   1.927       .  S
O1444      C1450   1.262       .  A
O1445      C1450   1.281       .  A
O1447      C1449   1.272       .  A
O1448     Ni1459   1.909       .  S
C1449      O1455   1.283       .  A
C1450      C1743   1.497       .  S
H1451      O1452   0.968       .  S
O1452     Ni1460   1.854       .  S
O1452     Ni1454   1.869       .  S
O1452     Ni1459   1.887       .  S
O1453     Ni1454   1.956       .  S
Ni1454     O1458   1.896       .  S
Ni1454     O1456   1.933       .  S
O1455     Ni1460   1.970       .  S
C1457      O1458   1.271       .  A
C1462      C1953   1.522   1_554  S
C1462      C1463   1.421       .  A
C1462      C1467   1.397       .  A
C1463      C1464   1.439       .  A
C1463      H1468   1.083       .  S
C1464      C2147   1.504   1_545  S
C1464      C1465   1.420       .  A
C1465      C1466   1.407       .  A
C1465      H1469   1.083       .  S
C1466      C1483   1.495       .  S
C1466      C1467   1.404       .  A
C1467      H1470   1.084       .  S
C1471      C1472   1.422       .  A
C1471      C1476   1.421       .  A
C1472      C1473   1.406       .  A
C1472      H1477   1.083       .  S
C1473      C1706   1.499       .  S
C1473      C1474   1.402       .  A
C1474      C1475   1.403       .  A
C1474      H1478   1.084       .  S
C1475      C1494   1.486       .  S
C1475      C1476   1.419       .  A
C1476      H1479   1.083       .  S
O1480     Ni1486   1.905       .  S
O1480      C1501   1.268       .  A
O1481     Ni1504   1.917       .  S
O1481      C1490   1.276       .  A
O1482     Ni1486   1.893       .  S
O1482     Ni1504   1.904       .  S
O1482     Ni1498   1.945       .  S
O1482      H1505   0.966       .  S
C1483      O1500   1.292       .  A
C1483      O1492   1.282       .  A
O1484     Ni1503   1.929       .  S
O1484      C1490   1.271       .  A
O1485     Ni1503   1.900       .  S
O1485      C1487   1.265       .  A
Ni1486     O1489   1.930       .  S
Ni1486     O1491   1.919       .  S
C1487      C1543   1.512       .  S
C1487      O1497   1.281       .  A
O1488     Ni1504   1.946       .  S
O1488      C1494   1.278       .  A
O1489      C1494   1.278       .  A
O1491      C1493   1.271       .  A
O1492     Ni1503   1.909       .  S
C1493      C1576   1.524       .  S
C1493      O1499   1.287       .  A
H1495      O1496   0.966       .  S
O1496     Ni1504   1.901       .  S
O1496     Ni1498   1.910       .  S
O1496     Ni1503   1.882       .  S
O1497     Ni1498   1.980       .  S
Ni1498     O1502   1.941       .  S
Ni1498     O1500   1.959       .  S
O1499     Ni1504   1.992       .  S
C1501      C1536   1.472       .  S
C1501      O1502   1.279       .  A
O1506     Ni1512   1.887       .  S
O1506      C1527   1.265       .  A
O1507     Ni1530   1.916       .  S
O1507      C1516   1.271       .  A
O1508     Ni1512   1.906       .  S
O1508     Ni1530   1.899       .  S
O1508     Ni1524   1.966       .  S
O1508      H1531   0.966       .  S
C1509      C2238   1.478       .  S
C1509      O1526   1.294       .  A
C1509      O2222   1.275       .  A
O1510     Ni1529   1.919       .  S
O1510      C1516   1.267       .  A
O1511     Ni1529   1.897       .  S
O1511      C1513   1.266       .  A
Ni1512     O1515   1.923       .  S
Ni1512     O1517   1.884       .  S
C1513      C1727   1.454       .  S
C1513      O1523   1.259       .  A
O1514     Ni1530   1.896       .  S
O1514      C1520   1.254       .  A
O1515      C1520   1.261       .  A
O1517      C1519   1.273       .  A
O1518     Ni2233   1.892       .  S
O1518      C2213   1.275       .  A
C1519      C1736   1.492       .  S
C1519      O1525   1.299       .  A
H1521      O1522   0.967       .  S
O1522     Ni1530   1.874       .  S
O1522     Ni1524   1.894       .  S
O1522     Ni1529   1.885       .  S
O1523     Ni1524   1.902       .  S
Ni1524     O1528   1.930       .  S
Ni1524     O1526   1.952       .  S
O1525     Ni1530   1.988       .  S
C1527      O1528   1.279       .  A
Ni1529     O2222   1.892       .  S
C1532      C1645   1.507       .  S
C1532      C1533   1.396       .  A
C1532      C1537   1.412       .  A
C1533      C1534   1.425       .  A
C1533      H1538   1.084       .  S
C1534      C2213   1.478   1_545  S
C1534      C1535   1.402       .  A
C1535      C1536   1.402       .  A
C1535      H1539   1.084       .  S
C1536      C1537   1.411       .  A
C1537      H1540   1.084       .  S
C1541      C1607   1.494       .  S
C1541      C1542   1.424       .  A
C1541      C1546   1.407       .  A
C1542      C1543   1.420       .  A
C1542      H1547   1.083       .  S
C1543      C1544   1.420       .  A
C1544      C1545   1.406       .  A
C1544      H1548   1.084       .  S
C1545      C1564   1.487       .  S
C1545      C1546   1.396       .  A
C1546      H1549   1.085       .  S
O1550     Ni1556   1.898       .  S
O1550      C1571   1.263       .  A
O1551     Ni1574   1.912       .  S
O1551      C1560   1.274       .  A
O1552     Ni1556   1.887       .  S
O1552     Ni1574   1.900       .  S
O1552     Ni1568   1.943       .  S
O1552      H1575   0.966       .  S
C1553      O1570   1.289       .  A
C1553      O1562   1.280       .  A
O1554     Ni1573   1.912       .  S
O1554      C1560   1.268       .  A
O1555     Ni1573   1.895       .  S
O1555      C1557   1.269       .  A
Ni1556     O1559   1.914       .  S
Ni1556     O1561   1.912       .  S
C1557      C1620   1.476       .  S
C1557      O1567   1.267       .  A
O1558     Ni1574   1.963       .  S
O1558      C1564   1.287       .  A
O1559      C1564   1.273       .  A
O1561      C1563   1.269       .  A
O1562     Ni1573   1.898       .  S
C1563      C1629   1.491       .  S
C1563      O1569   1.269       .  A
H1565      O1566   0.967       .  S
O1566     Ni1574   1.907       .  S
O1566     Ni1568   1.899       .  S
O1566     Ni1573   1.864       .  S
O1567     Ni1568   1.935       .  S
Ni1568     O1572   1.921       .  S
Ni1568     O1570   1.950       .  S
O1569     Ni1574   1.942       .  S
C1571      O1572   1.275       .  A
C1576      C1577   1.423       .  A
C1576      C1581   1.437       .  A
C1577      C1578   1.404       .  A
C1577      H1582   1.083       .  S
C1578      C1579   1.401       .  A
C1579      C1932   1.388       .  A
C1580      C1651   1.517       .  S
C1580      C1931   1.388       .  A
C1580      C1933   1.438       .  A
C1581      C1932   1.438       .  A
C1581      H1584   1.082       .  S
C1585      C1659   1.479       .  S
C1585      C2290   1.411   1_545  A
C1586      C2289   1.411       .  A
C1586      C1587   1.407       .  A
C1586      H1591   1.084       .  S
C1587      C1720   1.472       .  S
C1588      C2293   1.400       .  A
C1588      H1592   1.085       .  S
C1589      C1615   1.468       .  S
C1589      C2292   1.400   1_545  A
C1589      C1590   1.405       .  A
C1590      H1593   1.084       .  S
O1594     Ni1600   1.923       .  S
O1594      C1615   1.272       .  A
O1595     Ni1618   1.890       .  S
O1595      C1604   1.266       .  A
O1596     Ni1600   1.869       .  S
O1596     Ni1618   1.894       .  S
O1596     Ni1612   1.896       .  S
O1596      H1619   0.966       .  S
C1597      C1622   1.469       .  S
C1597      O1614   1.281       .  A
C1597      O1606   1.267       .  A
O1598     Ni1617   1.902       .  S
O1598      C1604   1.264       .  A
O1599     Ni1617   1.929       .  S
O1599      C1601   1.278       .  A
Ni1600     O1603   1.913       .  S
Ni1600     O1605   1.904       .  S
C1601      C1814   1.522       .  S
C1601      O1611   1.276       .  A
O1602     Ni1618   1.923       .  S
O1602      C1608   1.278       .  A
O1603      C1608   1.284       .  A
C1604      C1752   1.443       .  S
O1605      C1607   1.267       .  A
O1606     Ni1617   1.903       .  S
C1607      O1613   1.272       .  A
C1608      C2451   1.474   1_545  S
H1609      O1610   0.966       .  S
O1610     Ni1618   1.918       .  S
O1610     Ni1612   1.905       .  S
O1610     Ni1617   1.894       .  S
O1611     Ni1612   1.968       .  S
Ni1612     O1616   1.917       .  S
Ni1612     O1614   1.941       .  S
O1613     Ni1618   1.952       .  S
C1615      O1616   1.277       .  A
C1620      C1973   1.398   1_554  A
C1620      C1977   1.421   1_554  A
C1621      C1972   1.398       .  A
C1621      C1622   1.383       .  A
C1621      H1626   1.085       .  S
C1622      C1623   1.401       .  A
C1623      C1624   1.416       .  A
C1623      H1627   1.084       .  S
C1624      C1686   1.500       .  S
C1624      C1625   1.417       .  A
C1625      C1972   1.421       .  A
C1625      H1628   1.083       .  S
C1629      C1630   1.412       .  A
C1629      C1634   1.397       .  A
C1630      C1631   1.421       .  A
C1630      H1635   1.083       .  S
C1631      C1632   1.408       .  A
C1632      C1633   1.392       .  A
C1632      H1636   1.084       .  S
C1633      C1687   1.470       .  S
C1633      C1634   1.395       .  A
C1634      H1637   1.084       .  S
O1638     Ni1644   1.963       .  S
O1638      C1659   1.289       .  A
O1639     Ni1662   1.875       .  S
O1639      C1648   1.262       .  A
O1640     Ni1644   1.871       .  S
O1640     Ni1662   1.868       .  S
O1640     Ni1656   1.880       .  S
O1640      H1663   0.967       .  S
C1641      O1658   1.275       .  A
C1641      O1650   1.275       .  A
O1642     Ni1661   1.892       .  S
O1642      C1648   1.263       .  A
O1643     Ni1661   1.903       .  S
O1643      C1645   1.267       .  A
Ni1644     O1647   1.939       .  S
Ni1644     O1649   1.959       .  S
C1645      O1655   1.287       .  A
O1646     Ni1662   1.915       .  S
O1646      C1652   1.287       .  A
O1647      C1652   1.285       .  A
C1648      C1756   1.424       .  S
O1649      C1651   1.285       .  A
O1650     Ni1661   1.913       .  S
C1651      O1657   1.259       .  A
C1652      C1738   1.481   1_545  S
H1653      O1654   0.963       .  S
O1654     Ni1662   1.937       .  S
O1654     Ni1656   1.895       .  S
O1654     Ni1661   1.882       .  S
O1655     Ni1656   1.978       .  S
Ni1656     O1660   1.899       .  S
Ni1656     O1658   1.938       .  S
O1657     Ni1662   1.938       .  S
C1659      O1660   1.278       .  A
C1664      C1665   1.405       .  A
C1664      C1669   1.410       .  A
C1665      C2018   1.381       .  A
C1665      H2022   1.085       .  S
C1666      C2017   1.381       .  A
C1666      C2019   1.402       .  A
C1667      C2018   1.402       .  A
C1667      C1668   1.406       .  A
C1667      H2023   1.085       .  S
C1668      C1683   1.468       .  S
C1668      C1669   1.408       .  A
C1669      H1672   1.084       .  S
H1670      C2017   1.085   1_554  S
H1671      C2019   1.085       .  S
O1673     Ni1679   1.925       .  S
O1673      C1694   1.270       .  A
O1674     Ni1697   1.937       .  S
O1674      C1683   1.276       .  A
O1675     Ni1679   1.876       .  S
O1675     Ni1697   1.908       .  S
O1675     Ni1691   1.895       .  S
O1675      H1698   0.967       .  S
C1676      C1734   1.479       .  S
C1676      O1693   1.283       .  A
C1676      O1685   1.279       .  A
O1677     Ni1696   1.906       .  S
O1677      C1683   1.265       .  A
O1678     Ni1696   1.917       .  S
O1678      C1680   1.268       .  A
Ni1679     O1682   1.911       .  S
Ni1679     O1684   1.898       .  S
C1680      C1745   1.500       .  S
C1680      O1690   1.276       .  A
O1681     Ni1697   1.922       .  S
O1681      C1687   1.283       .  A
O1682      C1687   1.281       .  A
O1684      C1686   1.265       .  A
O1685     Ni1696   1.925       .  S
C1686      O1692   1.279       .  A
H1688      O1689   0.967       .  S
O1689     Ni1697   1.926       .  S
O1689     Ni1691   1.892       .  S
O1689     Ni1696   1.885       .  S
O1690     Ni1691   1.963       .  S
Ni1691     O1695   1.916       .  S
Ni1691     O1693   1.946       .  S
O1692     Ni1697   1.971       .  S
C1694      C1729   1.477       .  S
C1694      O1695   1.273       .  A
O1699     Ni1705   1.915       .  S
O1699      C1720   1.265       .  A
O1700     Ni1723   1.906       .  S
O1700      C1709   1.264       .  A
O1701     Ni1705   1.884       .  S
O1701     Ni1723   1.906       .  S
O1701     Ni1717   1.884       .  S
O1701      H1724   0.966       .  S
C1702      C1725   1.451       .  S
C1702      O1719   1.271       .  A
C1702      O1711   1.268       .  A
O1703     Ni1722   1.904       .  S
O1703      C1709   1.264       .  A
O1704     Ni1722   1.925       .  S
O1704      C1706   1.276       .  A
Ni1705     O1708   1.900       .  S
Ni1705     O1710   1.902       .  S
C1706      O1716   1.277       .  A
O1707     Ni1723   1.919       .  S
O1707      C1713   1.278       .  A
O1708      C1713   1.280       .  A
C1709      C1754   1.455       .  S
O1710      C1712   1.262       .  A
O1711     Ni1722   1.907       .  S
C1712      O1718   1.262       .  A
H1714      O1715   0.966       .  S
O1715     Ni1723   1.919       .  S
O1715     Ni1717   1.911       .  S
O1715     Ni1722   1.901       .  S
O1716     Ni1717   1.935       .  S
Ni1717     O1721   1.932       .  S
Ni1717     O1719   1.899       .  S
O1718     Ni1723   1.908       .  S
C1720      O1721   1.275       .  A
C1725      C1726   1.385       .  A
C1725      C1730   1.403       .  A
C1726      C1727   1.386       .  A
C1726      H1731   1.086       .  S
C1727      C1728   1.407       .  A
C1728      C1729   1.402       .  A
C1728      H1732   1.084       .  S
C1729      C1730   1.409       .  A
C1730      H1733   1.084       .  S
C1734      C2087   1.405       .  A
C1734      C1739   1.402       .  A
C1735      C2086   1.405       .  A
C1735      C1736   1.413   1_556  A
C1735      H1740   1.084   1_556  S
C1736      C1737   1.399       .  A
C1737      C2794   1.414   1_554  A
C1737      H2445   1.083       .  S
C1738      C2793   1.414       .  A
C1738      C2443   1.410       .  A
C1739      C2442   1.410       .  A
C1739      H1742   1.084       .  S
H1741      C2441   1.083       .  S
C1743      C1744   1.424       .  A
C1743      C1748   1.389       .  A
C1744      C1745   1.430       .  A
C1744      H1749   1.083       .  S
C1745      C1746   1.418       .  A
C1746      C1747   1.404       .  A
C1746      H1750   1.084       .  S
C1747      C2312   1.474       .  S
C1747      C1748   1.389       .  A
C1748      H2455   1.086       .  S
H1751      C2452   1.086   1_545  S
C1752      C1753   1.405       .  A
C1752      C1757   1.384       .  A
C1753      C1754   1.405       .  A
C1753      H1758   1.084       .  S
C1754      C1755   1.387       .  A
C1755      C1756   1.394       .  A
C1755      H1759   1.085       .  S
C1756      C1757   1.383       .  A
C1757      H1760   1.086       .  S
C1761      C1809   1.458       .  S
C1761      C2466   1.400       .  A
C1762      C2465   1.400   1_545  A
C1762      C1763   1.393       .  A
C1762      H1767   1.085       .  S
C1763      C1912   1.459       .  S
C1764      C2469   1.401   1_545  A
C1764      H1768   1.085       .  S
C1765      C1868   1.464       .  S
C1765      C2468   1.401       .  A
C1765      C1766   1.407       .  A
C1766      H1769   1.084       .  S
C1770      C1879   1.467       .  S
C1770      C1771   1.411       .  A
C1770      C1775   1.392       .  A
C1771      C1772   1.403       .  A
C1771      H1776   1.084       .  S
C1772      C1923   1.459       .  S
C1772      C1773   1.384       .  A
C1773      C1774   1.395       .  A
C1773      H1777   1.085       .  S
C1774      C1798   1.435       .  S
C1774      C1775   1.396       .  A
C1775      H1778   1.085       .  S
C1779      C2064   1.464       .  S
C1780      C1781   1.398       .  A
C1780      H1785   1.084       .  S
C1781      C1842   1.482       .  S
C1781      C1782   1.410       .  A
C1782      C1783   1.405       .  A
C1782      H1786   1.084       .  S
C1783      C1872   1.464       .  S
C1783      C1784   1.395       .  A
O1788     Ni1794   1.938       .  S
O1788      C1809   1.277       .  A
O1789     Ni1812   1.852       .  S
O1789      C1798   1.266       .  A
O1790     Ni1794   1.884       .  S
O1790     Ni1812   1.910       .  S
O1790     Ni1806   1.930       .  S
O1790      H1813   0.966       .  S
C1791      C2018   1.477       .  S
C1791      O1808   1.288       .  A
C1791      O1800   1.271       .  A
O1792     Ni1811   1.937       .  S
O1792      C1798   1.282       .  A
O1793     Ni1811   1.941       .  S
O1793      C1795   1.277       .  A
Ni1794     O1797   1.936       .  S
Ni1794     O1799   1.914       .  S
C1795      C2520   1.504       .  S
C1795      O1805   1.273       .  A
O1796     Ni1812   1.927       .  S
O1796      C1802   1.262       .  A
O1797      C1802   1.281       .  A
O1799      C1801   1.272       .  A
O1800     Ni1811   1.909       .  S
C1801      O1807   1.283       .  A
C1802      C2095   1.497       .  S
H1803      O1804   0.968       .  S
O1804     Ni1812   1.854       .  S
O1804     Ni1806   1.869       .  S
O1804     Ni1811   1.887       .  S
O1805     Ni1806   1.956       .  S
Ni1806     O1810   1.896       .  S
Ni1806     O1808   1.933       .  S
O1807     Ni1812   1.970       .  S
C1809      O1810   1.271       .  A
C1814      C1815   1.421       .  A
C1814      C1819   1.397       .  A
C1815      C1816   1.439       .  A
C1815      H1820   1.083       .  S
C1816      C2499   1.504   1_545  S
C1816      C1817   1.420       .  A
C1817      C1818   1.407       .  A
C1817      H1821   1.083       .  S
C1818      C1835   1.495       .  S
C1818      C1819   1.404       .  A
C1819      H1822   1.084       .  S
C1823      C1824   1.422       .  A
C1823      C1828   1.421       .  A
C1824      C1825   1.406       .  A
C1824      H1829   1.083       .  S
C1825      C2058   1.499       .  S
C1825      C1826   1.402       .  A
C1826      C1827   1.403       .  A
C1826      H1830   1.084       .  S
C1827      C1846   1.486       .  S
C1827      C1828   1.419       .  A
C1828      H1831   1.083       .  S
O1832     Ni1838   1.905       .  S
O1832      C1853   1.268       .  A
O1833     Ni1856   1.917       .  S
O1833      C1842   1.276       .  A
O1834     Ni1838   1.893       .  S
O1834     Ni1856   1.904       .  S
O1834     Ni1850   1.945       .  S
O1834      H1857   0.966       .  S
C1835      O1852   1.292       .  A
C1835      O1844   1.282       .  A
O1836     Ni1855   1.929       .  S
O1836      C1842   1.271       .  A
O1837     Ni1855   1.900       .  S
O1837      C1839   1.265       .  A
Ni1838     O1841   1.930       .  S
Ni1838     O1843   1.919       .  S
C1839      C1895   1.512       .  S
C1839      O1849   1.281       .  A
O1840     Ni1856   1.946       .  S
O1840      C1846   1.278       .  A
O1841      C1846   1.278       .  A
O1843      C1845   1.271       .  A
O1844     Ni1855   1.909       .  S
C1845      C1928   1.524       .  S
C1845      O1851   1.287       .  A
H1847      O1848   0.966       .  S
O1848     Ni1856   1.901       .  S
O1848     Ni1850   1.910       .  S
O1848     Ni1855   1.882       .  S
O1849     Ni1850   1.980       .  S
Ni1850     O1854   1.941       .  S
Ni1850     O1852   1.959       .  S
O1851     Ni1856   1.992       .  S
C1853      C1888   1.472       .  S
C1853      O1854   1.279       .  A
O1858     Ni1864   1.887       .  S
O1858      C1879   1.265       .  A
O1859     Ni1882   1.916       .  S
O1859      C1868   1.271       .  A
O1860     Ni1864   1.906       .  S
O1860     Ni1882   1.899       .  S
O1860     Ni1876   1.966       .  S
O1860      H1883   0.966       .  S
C1861      C2590   1.478       .  S
C1861      O1878   1.294       .  A
C1861      O2574   1.275       .  A
O1862     Ni1881   1.919       .  S
O1862      C1868   1.267       .  A
O1863     Ni1881   1.897       .  S
O1863      C1865   1.266       .  A
Ni1864     O1867   1.923       .  S
Ni1864     O1869   1.884       .  S
C1865      C2079   1.454       .  S
C1865      O1875   1.259       .  A
O1866     Ni1882   1.896       .  S
O1866      C1872   1.254       .  A
O1867      C1872   1.261       .  A
O1869      C1871   1.273       .  A
O1870     Ni2585   1.892       .  S
O1870      C2565   1.275       .  A
C1871      C2088   1.492       .  S
C1871      O1877   1.299       .  A
H1873      O1874   0.967       .  S
O1874     Ni1882   1.874       .  S
O1874     Ni1876   1.894       .  S
O1874     Ni1881   1.885       .  S
O1875     Ni1876   1.902       .  S
Ni1876     O1880   1.930       .  S
Ni1876     O1878   1.952       .  S
O1877     Ni1882   1.988       .  S
C1879      O1880   1.279       .  A
Ni1881     O2574   1.892       .  S
C1884      C1997   1.507       .  S
C1884      C1885   1.396       .  A
C1884      C1889   1.412       .  A
C1885      C1886   1.425       .  A
C1885      H1890   1.084       .  S
C1886      C2565   1.478   1_545  S
C1886      C1887   1.402       .  A
C1887      C1888   1.402       .  A
C1887      H1891   1.084       .  S
C1888      C1889   1.411       .  A
C1889      H1892   1.084       .  S
C1893      C1959   1.494       .  S
C1893      C1894   1.424       .  A
C1893      C1898   1.407       .  A
C1894      C1895   1.420       .  A
C1894      H1899   1.083       .  S
C1895      C1896   1.420       .  A
C1896      C1897   1.406       .  A
C1896      H1900   1.084       .  S
C1897      C1916   1.487       .  S
C1897      C1898   1.396       .  A
C1898      H1901   1.085       .  S
O1902     Ni1908   1.898       .  S
O1902      C1923   1.263       .  A
O1903     Ni1926   1.912       .  S
O1903      C1912   1.274       .  A
O1904     Ni1908   1.887       .  S
O1904     Ni1926   1.900       .  S
O1904     Ni1920   1.943       .  S
O1904      H1927   0.966       .  S
C1905      O1922   1.289       .  A
C1905      O1914   1.280       .  A
O1906     Ni1925   1.912       .  S
O1906      C1912   1.268       .  A
O1907     Ni1925   1.895       .  S
O1907      C1909   1.269       .  A
Ni1908     O1911   1.914       .  S
Ni1908     O1913   1.912       .  S
C1909      C1972   1.476       .  S
C1909      O1919   1.267       .  A
O1910     Ni1926   1.963       .  S
O1910      C1916   1.287       .  A
O1911      C1916   1.273       .  A
O1913      C1915   1.269       .  A
O1914     Ni1925   1.898       .  S
C1915      C1981   1.491       .  S
C1915      O1921   1.269       .  A
H1917      O1918   0.967       .  S
O1918     Ni1926   1.907       .  S
O1918     Ni1920   1.899       .  S
O1918     Ni1925   1.864       .  S
O1919     Ni1920   1.935       .  S
Ni1920     O1924   1.921       .  S
Ni1920     O1922   1.950       .  S
O1921     Ni1926   1.942       .  S
C1923      O1924   1.275       .  A
C1928      C1929   1.423       .  A
C1928      C1933   1.437       .  A
C1929      C1930   1.404       .  A
C1929      H1934   1.083       .  S
C1930      C1931   1.401       .  A
C1932      C2003   1.517   1_554  S
C1933      H1936   1.082       .  S
C1937      C2011   1.479       .  S
C1937      C2642   1.411   1_545  A
C1938      C2641   1.411       .  A
C1938      C1939   1.407       .  A
C1938      H1943   1.084       .  S
C1939      C2072   1.472       .  S
C1940      C2645   1.400       .  A
C1940      H1944   1.085       .  S
C1941      C1967   1.468       .  S
C1941      C2644   1.400   1_545  A
C1941      C1942   1.405       .  A
C1942      H1945   1.084       .  S
O1946     Ni1952   1.923       .  S
O1946      C1967   1.272       .  A
O1947     Ni1970   1.890       .  S
O1947      C1956   1.266       .  A
O1948     Ni1952   1.869       .  S
O1948     Ni1970   1.894       .  S
O1948     Ni1964   1.896       .  S
O1948      H1971   0.966       .  S
C1949      C1974   1.469       .  S
C1949      O1966   1.281       .  A
C1949      O1958   1.267       .  A
O1950     Ni1969   1.902       .  S
O1950      C1956   1.264       .  A
O1951     Ni1969   1.929       .  S
O1951      C1953   1.278       .  A
Ni1952     O1955   1.913       .  S
Ni1952     O1957   1.904       .  S
C1953      O1963   1.276       .  A
O1954     Ni1970   1.923       .  S
O1954      C1960   1.278       .  A
O1955      C1960   1.284       .  A
C1956      C2104   1.443       .  S
O1957      C1959   1.267       .  A
O1958     Ni1969   1.903       .  S
C1959      O1965   1.272       .  A
C1960      C2803   1.474   1_545  S
H1961      O1962   0.966       .  S
O1962     Ni1970   1.918       .  S
O1962     Ni1964   1.905       .  S
O1962     Ni1969   1.894       .  S
O1963     Ni1964   1.968       .  S
Ni1964     O1968   1.917       .  S
Ni1964     O1966   1.941       .  S
O1965     Ni1970   1.952       .  S
C1967      O1968   1.277       .  A
C1973      C1974   1.383       .  A
C1973      H1978   1.085       .  S
C1974      C1975   1.401       .  A
C1975      C1976   1.416       .  A
C1975      H1979   1.084       .  S
C1976      C2038   1.500       .  S
C1976      C1977   1.417       .  A
C1977      H1980   1.083       .  S
C1981      C1982   1.412       .  A
C1981      C1986   1.397       .  A
C1982      C1983   1.421       .  A
C1982      H1987   1.083       .  S
C1983      C1984   1.408       .  A
C1984      C1985   1.392       .  A
C1984      H1988   1.084       .  S
C1985      C2039   1.470       .  S
C1985      C1986   1.395       .  A
C1986      H1989   1.084       .  S
O1990     Ni1996   1.963       .  S
O1990      C2011   1.289       .  A
O1991     Ni2014   1.875       .  S
O1991      C2000   1.262       .  A
O1992     Ni1996   1.871       .  S
O1992     Ni2014   1.868       .  S
O1992     Ni2008   1.880       .  S
O1992      H2015   0.967       .  S
C1993      O2010   1.275       .  A
C1993      O2002   1.275       .  A
O1994     Ni2013   1.892       .  S
O1994      C2000   1.263       .  A
O1995     Ni2013   1.903       .  S
O1995      C1997   1.267       .  A
Ni1996     O1999   1.939       .  S
Ni1996     O2001   1.959       .  S
C1997      O2007   1.287       .  A
O1998     Ni2014   1.915       .  S
O1998      C2004   1.287       .  A
O1999      C2004   1.285       .  A
C2000      C2108   1.424       .  S
O2001      C2003   1.285       .  A
O2002     Ni2013   1.913       .  S
C2003      O2009   1.259       .  A
C2004      C2090   1.481   1_545  S
H2005      O2006   0.963       .  S
O2006     Ni2014   1.937       .  S
O2006     Ni2008   1.895       .  S
O2006     Ni2013   1.882       .  S
O2007     Ni2008   1.978       .  S
Ni2008     O2012   1.899       .  S
Ni2008     O2010   1.938       .  S
O2009     Ni2014   1.938       .  S
C2011      O2012   1.278       .  A
C2016      C2017   1.405       .  A
C2016      C2021   1.410       .  A
C2019      C2020   1.406       .  A
C2020      C2035   1.468       .  S
C2020      C2021   1.408       .  A
C2021      H2024   1.084       .  S
O2025     Ni2031   1.925       .  S
O2025      C2046   1.270       .  A
O2026     Ni2049   1.937       .  S
O2026      C2035   1.276       .  A
O2027     Ni2031   1.876       .  S
O2027     Ni2049   1.908       .  S
O2027     Ni2043   1.895       .  S
O2027      H2050   0.967       .  S
C2028      C2086   1.479       .  S
C2028      O2045   1.283       .  A
C2028      O2037   1.279       .  A
O2029     Ni2048   1.906       .  S
O2029      C2035   1.265       .  A
O2030     Ni2048   1.917       .  S
O2030      C2032   1.268       .  A
Ni2031     O2034   1.911       .  S
Ni2031     O2036   1.898       .  S
C2032      C2097   1.500       .  S
C2032      O2042   1.276       .  A
O2033     Ni2049   1.922       .  S
O2033      C2039   1.283       .  A
O2034      C2039   1.281       .  A
O2036      C2038   1.265       .  A
O2037     Ni2048   1.925       .  S
C2038      O2044   1.279       .  A
H2040      O2041   0.967       .  S
O2041     Ni2049   1.926       .  S
O2041     Ni2043   1.892       .  S
O2041     Ni2048   1.885       .  S
O2042     Ni2043   1.963       .  S
Ni2043     O2047   1.916       .  S
Ni2043     O2045   1.946       .  S
O2044     Ni2049   1.971       .  S
C2046      C2081   1.477       .  S
C2046      O2047   1.273       .  A
O2051     Ni2057   1.915       .  S
O2051      C2072   1.265       .  A
O2052     Ni2075   1.906       .  S
O2052      C2061   1.264       .  A
O2053     Ni2057   1.884       .  S
O2053     Ni2075   1.906       .  S
O2053     Ni2069   1.884       .  S
O2053      H2076   0.966       .  S
C2054      C2077   1.451       .  S
C2054      O2071   1.271       .  A
C2054      O2063   1.268       .  A
O2055     Ni2074   1.904       .  S
O2055      C2061   1.264       .  A
O2056     Ni2074   1.925       .  S
O2056      C2058   1.276       .  A
Ni2057     O2060   1.900       .  S
Ni2057     O2062   1.902       .  S
C2058      O2068   1.277       .  A
O2059     Ni2075   1.919       .  S
O2059      C2065   1.278       .  A
O2060      C2065   1.280       .  A
C2061      C2106   1.455       .  S
O2062      C2064   1.262       .  A
O2063     Ni2074   1.907       .  S
C2064      O2070   1.262       .  A
H2066      O2067   0.966       .  S
O2067     Ni2075   1.919       .  S
O2067     Ni2069   1.911       .  S
O2067     Ni2074   1.901       .  S
O2068     Ni2069   1.935       .  S
Ni2069     O2073   1.932       .  S
Ni2069     O2071   1.899       .  S
O2070     Ni2075   1.908       .  S
C2072      O2073   1.275       .  A
C2077      C2078   1.385       .  A
C2077      C2082   1.403       .  A
C2078      C2079   1.386       .  A
C2078      H2083   1.086       .  S
C2079      C2080   1.407       .  A
C2080      C2081   1.402       .  A
C2080      H2084   1.084       .  S
C2081      C2082   1.409       .  A
C2082      H2085   1.084       .  S
C2086      C2091   1.402       .  A
C2087      C2088   1.413       .  A
C2087      H2092   1.084       .  S
C2088      C2089   1.399       .  A
C2089      C2442   1.414       .  A
C2089      H2797   1.083       .  S
C2090      C2441   1.414   1_556  A
C2090      C2795   1.410       .  A
C2091      C2794   1.410       .  A
C2091      H2094   1.084       .  S
H2093      C2793   1.083       .  S
C2095      C2096   1.424       .  A
C2095      C2100   1.389       .  A
C2096      C2097   1.430       .  A
C2096      H2101   1.083       .  S
C2097      C2098   1.418       .  A
C2098      C2099   1.404       .  A
C2098      H2102   1.084       .  S
C2099      C2664   1.474       .  S
C2099      C2100   1.389       .  A
C2100      H2807   1.086       .  S
H2103      C2804   1.086   1_545  S
C2104      C2105   1.405       .  A
C2104      C2109   1.384       .  A
C2105      C2106   1.405       .  A
C2105      H2110   1.084       .  S
C2106      C2107   1.387       .  A
C2107      C2108   1.394       .  A
C2107      H2111   1.085       .  S
C2108      C2109   1.383       .  A
C2109      H2112   1.086       .  S
C2113      C2161   1.459       .  S
C2114      C2115   1.393       .  A
C2114      H2119   1.085       .  S
C2115      C2264   1.459       .  S
C2116      H2120   1.085       .  S
C2117      C2220   1.464       .  S
C2117      C2118   1.407       .  A
C2118      H2121   1.084       .  S
C2122      C2231   1.467       .  S
C2122      C2123   1.411       .  A
C2122      C2127   1.392       .  A
C2123      C2124   1.403       .  A
C2123      H2128   1.084       .  S
C2124      C2275   1.459       .  S
C2124      C2125   1.384       .  A
C2125      C2126   1.395       .  A
C2125      H2129   1.085       .  S
C2126      C2150   1.436       .  S
C2126      C2127   1.396       .  A
C2127      H2130   1.085       .  S
C2131      C2416   1.464       .  S
C2131      C2484   1.407       .  A
C2131      C2488   1.400       .  A
C2132      C2483   1.407   1_554  A
C2132      C2133   1.398       .  A
C2132      H2137   1.084       .  S
C2133      C2194   1.482       .  S
C2133      C2134   1.410       .  A
C2134      C2135   1.405       .  A
C2134      H2138   1.084       .  S
C2135      C2224   1.465       .  S
C2135      C2136   1.395       .  A
C2136      C2483   1.400   1_554  A
C2136      H2491   1.084   1_554  S
H2139      C2488   1.084       .  S
O2140     Ni2146   1.938       .  S
O2140      C2161   1.277       .  A
O2141     Ni2164   1.852       .  S
O2141      C2150   1.266       .  A
O2142     Ni2146   1.884       .  S
O2142     Ni2164   1.910       .  S
O2142     Ni2158   1.930       .  S
O2142      H2165   0.966       .  S
C2143      C2370   1.477   1_554  S
C2143      O2160   1.288       .  A
C2143      O2152   1.271       .  A
O2144     Ni2163   1.937       .  S
O2144      C2150   1.282       .  A
O2145     Ni2163   1.941       .  S
O2145      C2147   1.277       .  A
Ni2146     O2149   1.936       .  S
Ni2146     O2151   1.914       .  S
C2147      O2157   1.273       .  A
O2148     Ni2164   1.927       .  S
O2148      C2154   1.262       .  A
O2149      C2154   1.281       .  A
O2151      C2153   1.272       .  A
O2152     Ni2163   1.909       .  S
C2153      O2159   1.283       .  A
C2154      C2447   1.497       .  S
H2155      O2156   0.968       .  S
O2156     Ni2164   1.854       .  S
O2156     Ni2158   1.869       .  S
O2156     Ni2163   1.887       .  S
O2157     Ni2158   1.956       .  S
Ni2158     O2162   1.896       .  S
Ni2158     O2160   1.933       .  S
O2159     Ni2164   1.970       .  S
C2161      O2162   1.271       .  A
C2166      C2657   1.522   1_554  S
C2166      C2167   1.421       .  A
C2166      C2171   1.397       .  A
C2167      C2168   1.439       .  A
C2167      H2172   1.083       .  S
C2168      C2169   1.420       .  A
C2169      C2170   1.407       .  A
C2169      H2173   1.083       .  S
C2170      C2187   1.495       .  S
C2170      C2171   1.404       .  A
C2171      H2174   1.084       .  S
C2175      C2176   1.422       .  A
C2175      C2180   1.421       .  A
C2176      C2177   1.406       .  A
C2176      H2181   1.083       .  S
C2177      C2410   1.499       .  S
C2177      C2178   1.402       .  A
C2178      C2179   1.403       .  A
C2178      H2182   1.084       .  S
C2179      C2198   1.486       .  S
C2179      C2180   1.419       .  A
C2180      H2183   1.083       .  S
O2184     Ni2190   1.905       .  S
O2184      C2205   1.268       .  A
O2185     Ni2208   1.917       .  S
O2185      C2194   1.276       .  A
O2186     Ni2190   1.893       .  S
O2186     Ni2208   1.904       .  S
O2186     Ni2202   1.945       .  S
O2186      H2209   0.966       .  S
C2187      O2204   1.292       .  A
C2187      O2196   1.282       .  A
O2188     Ni2207   1.929       .  S
O2188      C2194   1.271       .  A
O2189     Ni2207   1.900       .  S
O2189      C2191   1.265       .  A
Ni2190     O2193   1.930       .  S
Ni2190     O2195   1.919       .  S
C2191      C2247   1.512       .  S
C2191      O2201   1.281       .  A
O2192     Ni2208   1.946       .  S
O2192      C2198   1.278       .  A
O2193      C2198   1.278       .  A
O2195      C2197   1.271       .  A
O2196     Ni2207   1.909       .  S
C2197      C2280   1.524       .  S
C2197      O2203   1.287       .  A
H2199      O2200   0.966       .  S
O2200     Ni2208   1.900       .  S
O2200     Ni2202   1.910       .  S
O2200     Ni2207   1.882       .  S
O2201     Ni2202   1.980       .  S
Ni2202     O2206   1.942       .  S
Ni2202     O2204   1.959       .  S
O2203     Ni2208   1.992       .  S
C2205      C2240   1.472       .  S
C2205      O2206   1.279       .  A
O2210     Ni2216   1.887       .  S
O2210      C2231   1.265       .  A
O2211     Ni2234   1.916       .  S
O2211      C2220   1.271       .  A
O2212     Ni2216   1.906       .  S
O2212     Ni2234   1.899       .  S
O2212     Ni2228   1.966       .  S
O2212      H2235   0.966       .  S
C2213      O2230   1.294       .  A
O2214     Ni2233   1.919       .  S
O2214      C2220   1.267       .  A
O2215     Ni2233   1.897       .  S
O2215      C2217   1.266       .  A
Ni2216     O2219   1.923       .  S
Ni2216     O2221   1.884       .  S
C2217      C2431   1.454       .  S
C2217      O2227   1.259       .  A
O2218     Ni2234   1.896       .  S
O2218      C2224   1.254       .  A
O2219      C2224   1.262       .  A
O2221      C2223   1.273       .  A
C2223      C2440   1.492       .  S
C2223      O2229   1.300       .  A
H2225      O2226   0.967       .  S
O2226     Ni2234   1.874       .  S
O2226     Ni2228   1.894       .  S
O2226     Ni2233   1.885       .  S
O2227     Ni2228   1.902       .  S
Ni2228     O2232   1.930       .  S
Ni2228     O2230   1.952       .  S
O2229     Ni2234   1.988       .  S
C2231      O2232   1.279       .  A
C2236      C2349   1.507       .  S
C2236      C2237   1.396       .  A
C2236      C2241   1.412       .  A
C2237      C2238   1.425       .  A
C2237      H2242   1.084       .  S
C2238      C2239   1.402       .  A
C2239      C2240   1.402       .  A
C2239      H2243   1.084       .  S
C2240      C2241   1.411       .  A
C2241      H2244   1.084       .  S
C2245      C2311   1.494       .  S
C2245      C2246   1.424       .  A
C2245      C2250   1.407       .  A
C2246      C2247   1.420       .  A
C2246      H2251   1.083       .  S
C2247      C2248   1.420       .  A
C2248      C2249   1.405       .  A
C2248      H2252   1.084       .  S
C2249      C2268   1.487       .  S
C2249      C2250   1.395       .  A
C2250      H2253   1.085       .  S
O2254     Ni2260   1.898       .  S
O2254      C2275   1.263       .  A
O2255     Ni2278   1.912       .  S
O2255      C2264   1.274       .  A
O2256     Ni2260   1.887       .  S
O2256     Ni2278   1.900       .  S
O2256     Ni2272   1.944       .  S
O2256      H2279   0.966       .  S
C2257      O2274   1.289       .  A
C2257      O2266   1.280       .  A
O2258     Ni2277   1.912       .  S
O2258      C2264   1.268       .  A
O2259     Ni2277   1.895       .  S
O2259      C2261   1.269       .  A
Ni2260     O2263   1.914       .  S
Ni2260     O2265   1.912       .  S
C2261      C2324   1.476       .  S
C2261      O2271   1.267       .  A
O2262     Ni2278   1.963       .  S
O2262      C2268   1.287       .  A
O2263      C2268   1.273       .  A
O2265      C2267   1.269       .  A
O2266     Ni2277   1.898       .  S
C2267      C2333   1.491       .  S
C2267      O2273   1.269       .  A
H2269      O2270   0.967       .  S
O2270     Ni2278   1.907       .  S
O2270     Ni2272   1.899       .  S
O2270     Ni2277   1.864       .  S
O2271     Ni2272   1.935       .  S
Ni2272     O2276   1.921       .  S
Ni2272     O2274   1.950       .  S
O2273     Ni2278   1.942       .  S
C2275      O2276   1.275       .  A
C2280      C2281   1.423       .  A
C2280      C2285   1.437       .  A
C2281      C2282   1.404       .  A
C2281      H2286   1.083       .  S
C2282      C2283   1.401       .  A
C2283      C2636   1.388       .  A
C2284      C2355   1.517       .  S
C2284      C2635   1.388       .  A
C2284      C2637   1.438       .  A
C2285      C2636   1.438       .  A
C2285      H2288   1.082       .  S
C2289      C2363   1.479       .  S
C2290      C2291   1.407       .  A
C2290      H2295   1.084       .  S
C2291      C2424   1.472       .  S
C2292      H2296   1.085       .  S
C2293      C2319   1.468       .  S
C2293      C2294   1.405       .  A
C2294      H2297   1.084       .  S
O2298     Ni2304   1.923       .  S
O2298      C2319   1.272       .  A
O2299     Ni2322   1.890       .  S
O2299      C2308   1.266       .  A
O2300     Ni2304   1.869       .  S
O2300     Ni2322   1.894       .  S
O2300     Ni2316   1.896       .  S
O2300      H2323   0.966       .  S
C2301      C2326   1.469       .  S
C2301      O2318   1.281       .  A
C2301      O2310   1.267       .  A
O2302     Ni2321   1.902       .  S
O2302      C2308   1.264       .  A
O2303     Ni2321   1.929       .  S
O2303      C2305   1.278       .  A
Ni2304     O2307   1.913       .  S
Ni2304     O2309   1.904       .  S
C2305      C2518   1.522       .  S
C2305      O2315   1.276       .  A
O2306     Ni2322   1.923       .  S
O2306      C2312   1.278       .  A
O2307      C2312   1.284       .  A
C2308      C2456   1.443       .  S
O2309      C2311   1.267       .  A
O2310     Ni2321   1.903       .  S
C2311      O2317   1.272       .  A
H2313      O2314   0.966       .  S
O2314     Ni2322   1.918       .  S
O2314     Ni2316   1.905       .  S
O2314     Ni2321   1.894       .  S
O2315     Ni2316   1.968       .  S
Ni2316     O2320   1.918       .  S
Ni2316     O2318   1.941       .  S
O2317     Ni2322   1.952       .  S
C2319      O2320   1.277       .  A
C2324      C2677   1.398   1_554  A
C2324      C2681   1.421   1_554  A
C2325      C2676   1.398       .  A
C2325      C2326   1.383       .  A
C2325      H2330   1.085       .  S
C2326      C2327   1.401       .  A
C2327      C2328   1.416       .  A
C2327      H2331   1.084       .  S
C2328      C2390   1.499       .  S
C2328      C2329   1.417       .  A
C2329      C2676   1.421       .  A
C2329      H2332   1.083       .  S
C2333      C2334   1.412       .  A
C2333      C2338   1.397       .  A
C2334      C2335   1.421       .  A
C2334      H2339   1.083       .  S
C2335      C2336   1.408       .  A
C2336      C2337   1.392       .  A
C2336      H2340   1.084       .  S
C2337      C2391   1.470       .  S
C2337      C2338   1.395       .  A
C2338      H2341   1.084       .  S
O2342     Ni2348   1.963       .  S
O2342      C2363   1.289       .  A
O2343     Ni2366   1.875       .  S
O2343      C2352   1.262       .  A
O2344     Ni2348   1.871       .  S
O2344     Ni2366   1.868       .  S
O2344     Ni2360   1.880       .  S
O2344      H2367   0.967       .  S
C2345      O2362   1.275       .  A
C2345      O2354   1.275       .  A
O2346     Ni2365   1.892       .  S
O2346      C2352   1.263       .  A
O2347     Ni2365   1.903       .  S
O2347      C2349   1.267       .  A
Ni2348     O2351   1.939       .  S
Ni2348     O2353   1.959       .  S
C2349      O2359   1.287       .  A
O2350     Ni2366   1.915       .  S
O2350      C2356   1.287       .  A
O2351      C2356   1.285       .  A
C2352      C2460   1.424       .  S
O2353      C2355   1.285       .  A
O2354     Ni2365   1.913       .  S
C2355      O2361   1.259       .  A
C2356      C2442   1.481       .  S
H2357      O2358   0.963       .  S
O2358     Ni2366   1.937       .  S
O2358     Ni2360   1.895       .  S
O2358     Ni2365   1.882       .  S
O2359     Ni2360   1.978       .  S
Ni2360     O2364   1.899       .  S
Ni2360     O2362   1.938       .  S
O2361     Ni2366   1.938       .  S
C2363      O2364   1.278       .  A
C2368      C2369   1.405       .  A
C2368      C2373   1.410       .  A
C2369      C2722   1.381       .  A
C2369      H2726   1.085       .  S
C2370      C2721   1.381       .  A
C2370      C2723   1.402       .  A
C2371      C2722   1.402       .  A
C2371      C2372   1.406       .  A
C2371      H2727   1.085       .  S
C2372      C2387   1.468       .  S
C2372      C2373   1.408       .  A
C2373      H2376   1.084       .  S
H2374      C2721   1.085   1_554  S
H2375      C2723   1.085       .  S
O2377     Ni2383   1.925       .  S
O2377      C2398   1.270       .  A
O2378     Ni2401   1.937       .  S
O2378      C2387   1.276       .  A
O2379     Ni2383   1.876       .  S
O2379     Ni2401   1.908       .  S
O2379     Ni2395   1.895       .  S
O2379      H2402   0.967       .  S
C2380      C2438   1.479       .  S
C2380      O2397   1.283       .  A
C2380      O2389   1.279       .  A
O2381     Ni2400   1.906       .  S
O2381      C2387   1.265       .  A
O2382     Ni2400   1.918       .  S
O2382      C2384   1.268       .  A
Ni2383     O2386   1.911       .  S
Ni2383     O2388   1.898       .  S
C2384      C2449   1.500       .  S
C2384      O2394   1.276       .  A
O2385     Ni2401   1.922       .  S
O2385      C2391   1.283       .  A
O2386      C2391   1.281       .  A
O2388      C2390   1.265       .  A
O2389     Ni2400   1.925       .  S
C2390      O2396   1.279       .  A
H2392      O2393   0.967       .  S
O2393     Ni2401   1.926       .  S
O2393     Ni2395   1.892       .  S
O2393     Ni2400   1.885       .  S
O2394     Ni2395   1.963       .  S
Ni2395     O2399   1.916       .  S
Ni2395     O2397   1.946       .  S
O2396     Ni2401   1.971       .  S
C2398      C2433   1.477       .  S
C2398      O2399   1.273       .  A
O2403     Ni2409   1.915       .  S
O2403      C2424   1.265       .  A
O2404     Ni2427   1.906       .  S
O2404      C2413   1.264       .  A
O2405     Ni2409   1.884       .  S
O2405     Ni2427   1.906       .  S
O2405     Ni2421   1.884       .  S
O2405      H2428   0.966       .  S
C2406      C2429   1.451       .  S
C2406      O2423   1.271       .  A
C2406      O2415   1.268       .  A
O2407     Ni2426   1.904       .  S
O2407      C2413   1.264       .  A
O2408     Ni2426   1.925       .  S
O2408      C2410   1.276       .  A
Ni2409     O2412   1.900       .  S
Ni2409     O2414   1.902       .  S
C2410      O2420   1.277       .  A
O2411     Ni2427   1.919       .  S
O2411      C2417   1.278       .  A
O2412      C2417   1.280       .  A
C2413      C2458   1.455       .  S
O2414      C2416   1.262       .  A
O2415     Ni2426   1.907       .  S
C2416      O2422   1.262       .  A
H2418      O2419   0.966       .  S
O2419     Ni2427   1.919       .  S
O2419     Ni2421   1.911       .  S
O2419     Ni2426   1.901       .  S
O2420     Ni2421   1.935       .  S
Ni2421     O2425   1.932       .  S
Ni2421     O2423   1.900       .  S
O2422     Ni2427   1.908       .  S
C2424      O2425   1.275       .  A
C2429      C2430   1.385       .  A
C2429      C2434   1.403       .  A
C2430      C2431   1.386       .  A
C2430      H2435   1.085       .  S
C2431      C2432   1.407       .  A
C2432      C2433   1.402       .  A
C2432      H2436   1.084       .  S
C2433      C2434   1.409       .  A
C2434      H2437   1.084       .  S
C2438      C2791   1.405       .  A
C2438      C2443   1.402       .  A
C2439      C2790   1.405       .  A
C2439      C2440   1.413   1_556  A
C2439      H2444   1.084   1_556  S
C2440      C2441   1.398       .  A
C2443      H2446   1.084       .  S
C2447      C2448   1.424       .  A
C2447      C2452   1.389       .  A
C2448      C2449   1.430       .  A
C2448      H2453   1.083       .  S
C2449      C2450   1.418       .  A
C2450      C2451   1.404       .  A
C2450      H2454   1.084       .  S
C2451      C2452   1.389       .  A
C2456      C2457   1.405       .  A
C2456      C2461   1.384       .  A
C2457      C2458   1.405       .  A
C2457      H2462   1.084       .  S
C2458      C2459   1.387       .  A
C2459      C2460   1.394       .  A
C2459      H2463   1.085       .  S
C2460      C2461   1.383       .  A
C2461      H2464   1.086       .  S
C2465      C2513   1.459       .  S
C2466      C2467   1.393       .  A
C2466      H2471   1.085       .  S
C2467      C2616   1.459       .  S
C2468      H2472   1.085       .  S
C2469      C2572   1.464       .  S
C2469      C2470   1.407       .  A
C2470      H2473   1.084       .  S
C2474      C2583   1.467       .  S
C2474      C2475   1.411       .  A
C2474      C2479   1.392       .  A
C2475      C2476   1.403       .  A
C2475      H2480   1.084       .  S
C2476      C2627   1.459       .  S
C2476      C2477   1.384       .  A
C2477      C2478   1.395       .  A
C2477      H2481   1.085       .  S
C2478      C2502   1.436       .  S
C2478      C2479   1.396       .  A
C2479      H2482   1.085       .  S
C2483      C2768   1.464       .  S
C2484      C2485   1.398       .  A
C2484      H2489   1.084       .  S
C2485      C2546   1.482       .  S
C2485      C2486   1.410       .  A
C2486      C2487   1.405       .  A
C2486      H2490   1.084       .  S
C2487      C2576   1.465       .  S
C2487      C2488   1.395       .  A
O2492     Ni2498   1.938       .  S
O2492      C2513   1.277       .  A
O2493     Ni2516   1.852       .  S
O2493      C2502   1.266       .  A
O2494     Ni2498   1.884       .  S
O2494     Ni2516   1.910       .  S
O2494     Ni2510   1.930       .  S
O2494      H2517   0.966       .  S
C2495      C2722   1.477       .  S
C2495      O2512   1.288       .  A
C2495      O2504   1.271       .  A
O2496     Ni2515   1.937       .  S
O2496      C2502   1.282       .  A
O2497     Ni2515   1.941       .  S
O2497      C2499   1.277       .  A
Ni2498     O2501   1.936       .  S
Ni2498     O2503   1.914       .  S
C2499      O2509   1.273       .  A
O2500     Ni2516   1.927       .  S
O2500      C2506   1.262       .  A
O2501      C2506   1.281       .  A
O2503      C2505   1.272       .  A
O2504     Ni2515   1.909       .  S
C2505      O2511   1.283       .  A
C2506      C2799   1.497       .  S
H2507      O2508   0.968       .  S
O2508     Ni2516   1.854       .  S
O2508     Ni2510   1.869       .  S
O2508     Ni2515   1.887       .  S
O2509     Ni2510   1.956       .  S
Ni2510     O2514   1.896       .  S
Ni2510     O2512   1.933       .  S
O2511     Ni2516   1.970       .  S
C2513      O2514   1.271       .  A
C2518      C2519   1.421       .  A
C2518      C2523   1.397       .  A
C2519      C2520   1.439       .  A
C2519      H2524   1.083       .  S
C2520      C2521   1.420       .  A
C2521      C2522   1.407       .  A
C2521      H2525   1.083       .  S
C2522      C2539   1.495       .  S
C2522      C2523   1.404       .  A
C2523      H2526   1.084       .  S
C2527      C2528   1.422       .  A
C2527      C2532   1.421       .  A
C2528      C2529   1.406       .  A
C2528      H2533   1.083       .  S
C2529      C2762   1.499       .  S
C2529      C2530   1.402       .  A
C2530      C2531   1.403       .  A
C2530      H2534   1.084       .  S
C2531      C2550   1.486       .  S
C2531      C2532   1.419       .  A
C2532      H2535   1.083       .  S
O2536     Ni2542   1.905       .  S
O2536      C2557   1.268       .  A
O2537     Ni2560   1.917       .  S
O2537      C2546   1.276       .  A
O2538     Ni2542   1.893       .  S
O2538     Ni2560   1.904       .  S
O2538     Ni2554   1.945       .  S
O2538      H2561   0.966       .  S
C2539      O2556   1.292       .  A
C2539      O2548   1.282       .  A
O2540     Ni2559   1.929       .  S
O2540      C2546   1.271       .  A
O2541     Ni2559   1.900       .  S
O2541      C2543   1.265       .  A
Ni2542     O2545   1.930       .  S
Ni2542     O2547   1.919       .  S
C2543      C2599   1.512       .  S
C2543      O2553   1.281       .  A
O2544     Ni2560   1.946       .  S
O2544      C2550   1.278       .  A
O2545      C2550   1.278       .  A
O2547      C2549   1.271       .  A
O2548     Ni2559   1.909       .  S
C2549      C2632   1.524       .  S
C2549      O2555   1.287       .  A
H2551      O2552   0.966       .  S
O2552     Ni2560   1.900       .  S
O2552     Ni2554   1.910       .  S
O2552     Ni2559   1.882       .  S
O2553     Ni2554   1.980       .  S
Ni2554     O2558   1.941       .  S
Ni2554     O2556   1.959       .  S
O2555     Ni2560   1.992       .  S
C2557      C2592   1.472       .  S
C2557      O2558   1.279       .  A
O2562     Ni2568   1.887       .  S
O2562      C2583   1.265       .  A
O2563     Ni2586   1.916       .  S
O2563      C2572   1.271       .  A
O2564     Ni2568   1.906       .  S
O2564     Ni2586   1.899       .  S
O2564     Ni2580   1.966       .  S
O2564      H2587   0.966       .  S
C2565      O2582   1.294       .  A
O2566     Ni2585   1.919       .  S
O2566      C2572   1.267       .  A
O2567     Ni2585   1.897       .  S
O2567      C2569   1.266       .  A
Ni2568     O2571   1.923       .  S
Ni2568     O2573   1.884       .  S
C2569      C2783   1.454       .  S
C2569      O2579   1.259       .  A
O2570     Ni2586   1.896       .  S
O2570      C2576   1.254       .  A
O2571      C2576   1.262       .  A
O2573      C2575   1.273       .  A
C2575      C2792   1.492       .  S
C2575      O2581   1.300       .  A
H2577      O2578   0.967       .  S
O2578     Ni2586   1.874       .  S
O2578     Ni2580   1.894       .  S
O2578     Ni2585   1.885       .  S
O2579     Ni2580   1.902       .  S
Ni2580     O2584   1.930       .  S
Ni2580     O2582   1.952       .  S
O2581     Ni2586   1.988       .  S
C2583      O2584   1.279       .  A
C2588      C2701   1.507       .  S
C2588      C2589   1.396       .  A
C2588      C2593   1.412       .  A
C2589      C2590   1.425       .  A
C2589      H2594   1.084       .  S
C2590      C2591   1.402       .  A
C2591      C2592   1.402       .  A
C2591      H2595   1.084       .  S
C2592      C2593   1.411       .  A
C2593      H2596   1.084       .  S
C2597      C2663   1.494       .  S
C2597      C2598   1.424       .  A
C2597      C2602   1.407       .  A
C2598      C2599   1.420       .  A
C2598      H2603   1.083       .  S
C2599      C2600   1.420       .  A
C2600      C2601   1.405       .  A
C2600      H2604   1.084       .  S
C2601      C2620   1.487       .  S
C2601      C2602   1.396       .  A
C2602      H2605   1.085       .  S
O2606     Ni2612   1.898       .  S
O2606      C2627   1.263       .  A
O2607     Ni2630   1.912       .  S
O2607      C2616   1.274       .  A
O2608     Ni2612   1.887       .  S
O2608     Ni2630   1.900       .  S
O2608     Ni2624   1.944       .  S
O2608      H2631   0.966       .  S
C2609      O2626   1.289       .  A
C2609      O2618   1.280       .  A
O2610     Ni2629   1.912       .  S
O2610      C2616   1.268       .  A
O2611     Ni2629   1.895       .  S
O2611      C2613   1.269       .  A
Ni2612     O2615   1.914       .  S
Ni2612     O2617   1.912       .  S
C2613      C2676   1.476       .  S
C2613      O2623   1.267       .  A
O2614     Ni2630   1.963       .  S
O2614      C2620   1.287       .  A
O2615      C2620   1.273       .  A
O2617      C2619   1.269       .  A
O2618     Ni2629   1.898       .  S
C2619      C2685   1.491       .  S
C2619      O2625   1.269       .  A
H2621      O2622   0.967       .  S
O2622     Ni2630   1.907       .  S
O2622     Ni2624   1.899       .  S
O2622     Ni2629   1.864       .  S
O2623     Ni2624   1.935       .  S
Ni2624     O2628   1.921       .  S
Ni2624     O2626   1.950       .  S
O2625     Ni2630   1.942       .  S
C2627      O2628   1.275       .  A
C2632      C2633   1.423       .  A
C2632      C2637   1.437       .  A
C2633      C2634   1.404       .  A
C2633      H2638   1.083       .  S
C2634      C2635   1.401       .  A
C2636      C2707   1.517   1_554  S
C2637      H2640   1.082       .  S
C2641      C2715   1.479       .  S
C2642      C2643   1.407       .  A
C2642      H2647   1.084       .  S
C2643      C2776   1.472       .  S
C2644      H2648   1.085       .  S
C2645      C2671   1.468       .  S
C2645      C2646   1.405       .  A
C2646      H2649   1.084       .  S
O2650     Ni2656   1.923       .  S
O2650      C2671   1.272       .  A
O2651     Ni2674   1.890       .  S
O2651      C2660   1.266       .  A
O2652     Ni2656   1.869       .  S
O2652     Ni2674   1.894       .  S
O2652     Ni2668   1.896       .  S
O2652      H2675   0.966       .  S
C2653      C2678   1.469       .  S
C2653      O2670   1.281       .  A
C2653      O2662   1.267       .  A
O2654     Ni2673   1.902       .  S
O2654      C2660   1.264       .  A
O2655     Ni2673   1.929       .  S
O2655      C2657   1.278       .  A
Ni2656     O2659   1.913       .  S
Ni2656     O2661   1.904       .  S
C2657      O2667   1.276       .  A
O2658     Ni2674   1.923       .  S
O2658      C2664   1.278       .  A
O2659      C2664   1.284       .  A
C2660      C2808   1.443       .  S
O2661      C2663   1.267       .  A
O2662     Ni2673   1.903       .  S
C2663      O2669   1.272       .  A
H2665      O2666   0.966       .  S
O2666     Ni2674   1.918       .  S
O2666     Ni2668   1.905       .  S
O2666     Ni2673   1.894       .  S
O2667     Ni2668   1.968       .  S
Ni2668     O2672   1.918       .  S
Ni2668     O2670   1.941       .  S
O2669     Ni2674   1.952       .  S
C2671      O2672   1.277       .  A
C2677      C2678   1.383       .  A
C2677      H2682   1.085       .  S
C2678      C2679   1.401       .  A
C2679      C2680   1.416       .  A
C2679      H2683   1.084       .  S
C2680      C2742   1.500       .  S
C2680      C2681   1.417       .  A
C2681      H2684   1.083       .  S
C2685      C2686   1.412       .  A
C2685      C2690   1.397       .  A
C2686      C2687   1.421       .  A
C2686      H2691   1.083       .  S
C2687      C2688   1.408       .  A
C2688      C2689   1.392       .  A
C2688      H2692   1.084       .  S
C2689      C2743   1.470       .  S
C2689      C2690   1.395       .  A
C2690      H2693   1.084       .  S
O2694     Ni2700   1.963       .  S
O2694      C2715   1.289       .  A
O2695     Ni2718   1.875       .  S
O2695      C2704   1.262       .  A
O2696     Ni2700   1.871       .  S
O2696     Ni2718   1.868       .  S
O2696     Ni2712   1.880       .  S
O2696      H2719   0.967       .  S
C2697      O2714   1.275       .  A
C2697      O2706   1.275       .  A
O2698     Ni2717   1.892       .  S
O2698      C2704   1.263       .  A
O2699     Ni2717   1.903       .  S
O2699      C2701   1.267       .  A
Ni2700     O2703   1.939       .  S
Ni2700     O2705   1.959       .  S
C2701      O2711   1.287       .  A
O2702     Ni2718   1.915       .  S
O2702      C2708   1.287       .  A
O2703      C2708   1.285       .  A
C2704      C2812   1.424       .  S
O2705      C2707   1.285       .  A
O2706     Ni2717   1.913       .  S
C2707      O2713   1.259       .  A
C2708      C2794   1.481       .  S
H2709      O2710   0.963       .  S
O2710     Ni2718   1.937       .  S
O2710     Ni2712   1.895       .  S
O2710     Ni2717   1.882       .  S
O2711     Ni2712   1.978       .  S
Ni2712     O2716   1.899       .  S
Ni2712     O2714   1.938       .  S
O2713     Ni2718   1.938       .  S
C2715      O2716   1.278       .  A
C2720      C2721   1.405       .  A
C2720      C2725   1.410       .  A
C2723      C2724   1.406       .  A
C2724      C2739   1.468       .  S
C2724      C2725   1.408       .  A
C2725      H2728   1.084       .  S
O2729     Ni2735   1.925       .  S
O2729      C2750   1.270       .  A
O2730     Ni2753   1.937       .  S
O2730      C2739   1.276       .  A
O2731     Ni2735   1.876       .  S
O2731     Ni2753   1.908       .  S
O2731     Ni2747   1.895       .  S
O2731      H2754   0.967       .  S
C2732      C2790   1.479       .  S
C2732      O2749   1.283       .  A
C2732      O2741   1.279       .  A
O2733     Ni2752   1.906       .  S
O2733      C2739   1.265       .  A
O2734     Ni2752   1.918       .  S
O2734      C2736   1.268       .  A
Ni2735     O2738   1.911       .  S
Ni2735     O2740   1.898       .  S
C2736      C2801   1.500       .  S
C2736      O2746   1.276       .  A
O2737     Ni2753   1.922       .  S
O2737      C2743   1.283       .  A
O2738      C2743   1.281       .  A
O2740      C2742   1.265       .  A
O2741     Ni2752   1.925       .  S
C2742      O2748   1.279       .  A
H2744      O2745   0.967       .  S
O2745     Ni2753   1.926       .  S
O2745     Ni2747   1.892       .  S
O2745     Ni2752   1.885       .  S
O2746     Ni2747   1.963       .  S
Ni2747     O2751   1.916       .  S
Ni2747     O2749   1.946       .  S
O2748     Ni2753   1.971       .  S
C2750      C2785   1.477       .  S
C2750      O2751   1.273       .  A
O2755     Ni2761   1.915       .  S
O2755      C2776   1.265       .  A
O2756     Ni2779   1.906       .  S
O2756      C2765   1.264       .  A
O2757     Ni2761   1.884       .  S
O2757     Ni2779   1.906       .  S
O2757     Ni2773   1.884       .  S
O2757      H2780   0.966       .  S
C2758      C2781   1.451       .  S
C2758      O2775   1.271       .  A
C2758      O2767   1.268       .  A
O2759     Ni2778   1.904       .  S
O2759      C2765   1.264       .  A
O2760     Ni2778   1.925       .  S
O2760      C2762   1.276       .  A
Ni2761     O2764   1.900       .  S
Ni2761     O2766   1.902       .  S
C2762      O2772   1.277       .  A
O2763     Ni2779   1.919       .  S
O2763      C2769   1.278       .  A
O2764      C2769   1.280       .  A
C2765      C2810   1.455       .  S
O2766      C2768   1.262       .  A
O2767     Ni2778   1.907       .  S
C2768      O2774   1.262       .  A
H2770      O2771   0.966       .  S
O2771     Ni2779   1.918       .  S
O2771     Ni2773   1.911       .  S
O2771     Ni2778   1.901       .  S
O2772     Ni2773   1.935       .  S
Ni2773     O2777   1.932       .  S
Ni2773     O2775   1.900       .  S
O2774     Ni2779   1.908       .  S
C2776      O2777   1.275       .  A
C2781      C2782   1.385       .  A
C2781      C2786   1.403       .  A
C2782      C2783   1.386       .  A
C2782      H2787   1.085       .  S
C2783      C2784   1.407       .  A
C2784      C2785   1.402       .  A
C2784      H2788   1.084       .  S
C2785      C2786   1.409       .  A
C2786      H2789   1.084       .  S
C2790      C2795   1.402       .  A
C2791      C2792   1.413       .  A
C2791      H2796   1.084       .  S
C2792      C2793   1.399       .  A
C2795      H2798   1.084       .  S
C2799      C2800   1.424       .  A
C2799      C2804   1.389       .  A
C2800      C2801   1.430       .  A
C2800      H2805   1.083       .  S
C2801      C2802   1.418       .  A
C2802      C2803   1.404       .  A
C2802      H2806   1.084       .  S
C2803      C2804   1.389       .  A
C2808      C2809   1.405       .  A
C2808      C2813   1.384       .  A
C2809      C2810   1.405       .  A
C2809      H2814   1.084       .  S
C2810      C2811   1.387       .  A
C2811      C2812   1.394       .  A
C2811      H2815   1.085       .  S
C2812      C2813   1.383       .  A
C2813      H2816   1.086       .  S
