geometry optimzed in LAMMPS
_audit_creation_date              2020-11-30 
_audit_creation_method            'lammps2cif' 
_symmetry_space_group_name_H-M    'P1' 
_symmetry_Int_Tables_number       1 
_symmetry_cell_setting            triclinic 
loop_ 
_symmetry_equiv_pos_as_xyz 
  x,y,z 
_cell_length_a                    43.51579258 
_cell_length_b                    43.69480685995364 
_cell_length_c                    32.638694224647594 
_cell_angle_alpha                 90.63772197812753 
_cell_angle_beta                  88.6101445754211 
_cell_angle_gamma                 119.79062794364614 
loop_ 
_atom_site_label 
_atom_site_type_symbol 
_atom_site_fract_x 
_atom_site_fract_y 
_atom_site_fract_z 
_atom_site_charge 
O1          O  0.46404001  0.44475418  0.33090189    -0.71700
O2          O  0.05125542  0.02973655  0.34070700    -0.71900
O3          O  0.00472279  0.48502574  0.39071352    -0.71800
O4          O  0.01377685  0.48934059  0.27446970    -0.71800
O5          O  0.47878263  0.01300759  0.27440014    -0.71700
O6          O  0.47657279  0.01646335  0.39098578    -0.71800
O7          O  0.02145177  0.05710663  0.33791936    -0.71700
O8          O  0.43385547  0.47178251  0.32936571    -0.71900
V9          V  0.00877253  0.48782729  0.33256414     1.35200
V10         V  0.47826988  0.01426326  0.33269844     1.35200
C11         C  0.43431252  0.44300634  0.32853535     0.77500
C12         C  0.05115821  0.05864347  0.34003200     0.77600
C13         C  0.98898427  0.49888268  0.40955100     0.77500
C14         C  0.99701457  0.99905870  0.26005436     0.77400
O15         O  0.05955429  0.27589406  0.32692316    -0.71700
O16         O  0.47072938  0.18744295  0.32316935    -0.71900
O17         O  0.01515232  0.23382035  0.26910648    -0.71800
O18         O  0.01547290  0.23186934  0.38510921    -0.71800
O19         O  0.48564382  0.25831316  0.38466191    -0.71700
O20         O  0.48845703  0.26208298  0.26848320    -0.71800
O21         O  0.44288790  0.21700990  0.32553738    -0.71700
O22         O  0.03175098  0.30549842  0.33128036    -0.71900
V23         V  0.01478361  0.23349334  0.32718328     1.35200
V24         V  0.48745751  0.25947277  0.32658653     1.35200
C25         C  0.06077673  0.30540197  0.32955385     0.77500
C26         C  0.44163053  0.18745038  0.32502426     0.77600
C27         C  0.00194371  0.24959324  0.25052261     0.77500
C28         C  0.00108567  0.24563856  0.40662522     0.77400
O29         O  0.28058367  0.05323272  0.33539031    -0.71700
O30         O  0.19212060  0.46912310  0.34029422    -0.71900
O31         O  0.23652374  0.01226942  0.39550290    -0.71800
O32         O  0.23565504  0.00900267  0.27972009    -0.71800
O33         O  0.26214801  0.48269105  0.27641964    -0.71700
O34         O  0.26711398  0.48575426  0.39253265    -0.71800
O35         O  0.22108559  0.44061033  0.33734488    -0.71700
O36         O  0.30785658  0.02309687  0.33481005    -0.71900
V37         V  0.23667375  0.01003932  0.33760377     1.35200
V38         V  0.26399035  0.48460968  0.33447062     1.35200
C39         C  0.30947957  0.05279974  0.33370551     0.77500
C40         C  0.19168790  0.43995261  0.33929343     0.77600
C41         C  0.25080982  0.99854040  0.41590350     0.77500
C42         C  0.24882834  0.99322314  0.25982747     0.77400
O43         O  0.21707302  0.19183306  0.33247861    -0.71700
O44         O  0.30184050  0.28093465  0.32445479    -0.71900
O45         O  0.26301760  0.23808335  0.38622432    -0.71800
O46         O  0.25658453  0.23451368  0.27058041    -0.71800
O47         O  0.22682043  0.26223101  0.27350221    -0.71700
O48         O  0.23085557  0.26330979  0.38991831    -0.71800
O49         O  0.27079563  0.30704841  0.32926188    -0.71700
O50         O  0.18649859  0.21853718  0.33443676    -0.71900
V51         V  0.25901077  0.23680481  0.32846322     1.35200
V52         V  0.22929668  0.26222806  0.33168653     1.35200
C53         C  0.18709147  0.18990215  0.33506843     0.77500
C54         C  0.30084030  0.30945219  0.32586311     0.77600
C55         C  0.24780410  0.25098655  0.40785367     0.77500
C56         C  0.24116696  0.24816009  0.25218589     0.77400
O57         O  0.46966106  0.01588018  0.00126515    -0.71700
O58         O  0.05536056  0.01382520  0.00206264    -0.71900
O59         O  0.01191440  0.01404879  0.94514517    -0.71800
O60         O  0.01305280  0.01658147  0.06127114    -0.71800
O61         O  0.48981558  0.46885462  0.05839168    -0.71700
O62         O  0.48757690  0.46890069  0.94189319    -0.71800
O63         O  0.03290255  0.46667296  0.99435807    -0.71700
O64         O  0.44660878  0.47090980  0.00302423    -0.71900
V65         V  0.01199701  0.01409795  0.00320976     1.35200
V66         V  0.48948317  0.46983754  0.00010941     1.35200
C67         C  0.44708077  0.50004342  0.00214327     0.77500
C68         C  0.06203432  0.49528950  0.99420783     0.77600
C69         C  0.99597258  0.98520462  0.92591814     0.77500
C70         C  0.99890895  0.98852886  0.08224393     0.77400
O71         O  0.02074247  0.28958149  0.93687079    -0.71700
O72         O  0.02178985  0.28847876  0.05317872    -0.71900
O73         O  0.06554101  0.29024437  0.99263178    -0.71800
O74         O  0.47841463  0.28999339  0.99494033    -0.71800
O75         O  0.45128863  0.23295808  0.99305403    -0.71700
O76         O  0.03816387  0.23316575  0.99299193    -0.71800
O77         O  0.49517143  0.23361682  0.04961491    -0.71700
O78         O  0.49583832  0.23492212  0.93374732    -0.71900
V79         V  0.02087101  0.28797945  0.99499823     1.35200
V80         V  0.49607912  0.23549391  0.99167109     1.35200
C81         C  0.00707118  0.26124585  0.91657730     0.77500
C82         C  0.00734864  0.25976493  0.07285073     0.77600
C83         C  0.06704971  0.26214028  0.99221989     0.77500
C84         C  0.44964186  0.26098071  0.99497435     0.77400
O85         O  0.28152010  0.46627317  0.00270437    -0.71700
O86         O  0.19454016  0.46661707  0.99944619    -0.71900
O87         O  0.24142360  0.46838618  0.94311969    -0.71800
O88         O  0.23480455  0.46438421  0.05925746    -0.71800
O89         O  0.26235837  0.01478545  0.06333505    -0.71700
O90         O  0.26611707  0.01892435  0.94765219    -0.71800
O91         O  0.22114042  0.01792078  0.00573337    -0.71700
O92         O  0.30684081  0.01515241  0.00502233    -0.71900
V93         V  0.23859359  0.46750441  0.00121438     1.35200
V94         V  0.26352657  0.01558226  0.00544568     1.35200
C95         C  0.31082410  0.49469269  0.00287198     0.77500
C96         C  0.19412168  0.49530400  0.00163620     0.77600
C97         C  0.25655319  0.49765221  0.92449516     0.77500
C98         C  0.24887292  0.49227469  0.08035880     0.77400
O99         O  0.31591213  0.29190266  0.99929543    -0.71700
O100        O  0.22745340  0.28860891  0.99629833    -0.71900
O101        O  0.26847101  0.28856600  0.05590279    -0.71800
O102        O  0.27466574  0.29175512  0.93948789    -0.71800
O103        O  0.24761710  0.23478602  0.93769388    -0.71700
O104        O  0.24185458  0.23157412  0.05383008    -0.71800
O105        O  0.20061834  0.23154059  0.99453272    -0.71700
O106        O  0.28920908  0.23490364  0.99690300    -0.71900
V107        V  0.27114554  0.28913091  0.99769931     1.35200
V108        V  0.24539241  0.23429546  0.99578990     1.35200
C109        C  0.31784390  0.26404559  0.99810372     0.77500
C110        C  0.19882686  0.25948093  0.99540585     0.77600
C111        C  0.25348501  0.25949814  0.07486661     0.77500
C112        C  0.26204012  0.26378995  0.91848764     0.77400
O113        O  0.01756512  0.46631599  0.65692348    -0.71700
O114        O  0.02070561  0.05439372  0.67509183    -0.71900
O115        O  0.01907835  0.00782050  0.72998996    -0.71800
O116        O  0.02092351  0.01308020  0.61421023    -0.71800
O117        O  0.45960336  0.48154037  0.61241939    -0.71700
O118        O  0.46810553  0.48477981  0.72842644    -0.71800
O119        O  0.46800993  0.02775035  0.67019389    -0.71700
O120        O  0.46270377  0.43909484  0.66940105    -0.71900
V121        V  0.01877391  0.00988574  0.67205948     1.35200
V122        V  0.46490007  0.48365759  0.67030669     1.35200
C123        C  0.98883602  0.43720125  0.65941143     0.77500
C124        C  0.99225854  0.05559763  0.67397735     0.77600
C125        C  0.99007149  0.99349228  0.74989775     0.77500
C126        C  0.99284024  0.99967243  0.59402645     0.77400
O127        O  0.47001897  0.27850082  0.66160492    -0.71700
O128        O  0.47239101  0.19262528  0.66030259    -0.71900
O129        O  0.47272625  0.23638083  0.71868034    -0.71800
O130        O  0.46935715  0.23456350  0.60272811    -0.71800
O131        O  0.02607098  0.26060984  0.60286431    -0.71700
O132        O  0.02712466  0.26764095  0.71881436    -0.71800
O133        O  0.02763995  0.22118170  0.66480561    -0.71700
O134        O  0.02556980  0.30703739  0.65732941    -0.71900
V135        V  0.47220544  0.23606347  0.66067277     1.35200
V136        V  0.02552657  0.26357942  0.66092769     1.35200
C137        C  0.99676262  0.30749691  0.65997612     0.77500
C138        C  0.99921833  0.19182170  0.66553514     0.77600
C139        C  0.50193346  0.25244038  0.73664713     0.77500
C140        C  0.49746312  0.24807350  0.58108533     0.77400
O141        O  0.27898286  0.01315102  0.72945684    -0.71700
O142        O  0.28175914  0.01460804  0.61296031    -0.71900
O143        O  0.28145132  0.05808382  0.67191657    -0.71800
O144        O  0.28688972  0.47442944  0.66587102    -0.71800
O145        O  0.22959862  0.44584361  0.66814751    -0.71700
O146        O  0.22411097  0.03082334  0.67216123    -0.71800
O147        O  0.22854846  0.48984710  0.61234261    -0.71700
O148        O  0.22947362  0.48770810  0.72807485    -0.71900
V149        V  0.27933350  0.01362811  0.67121064     1.35200
V150        V  0.23018065  0.48944818  0.67019440     1.35200
C151        C  0.25816637  0.50089806  0.74707134     0.77500
C152        C  0.25685965  0.50498451  0.59118660     0.77600
C153        C  0.25315528  0.05959905  0.67234409     0.77500
C154        C  0.25824536  0.44516113  0.66644507     0.77400
O155        O  0.23552826  0.24295654  0.72247470    -0.71700
O156        O  0.23378653  0.24143724  0.60645678    -0.71900
O157        O  0.23426229  0.19842921  0.66452376    -0.71800
O158        O  0.23534777  0.28591187  0.66486049    -0.71800
O159        O  0.29267123  0.31384373  0.66108804    -0.71700
O160        O  0.29159510  0.22629817  0.66269192    -0.71800
O161        O  0.29100230  0.26861055  0.60337842    -0.71700
O162        O  0.29308604  0.27184103  0.72002823    -0.71900
V163        V  0.23586117  0.24271251  0.66443744     1.35200
V164        V  0.29101589  0.26956229  0.66178640     1.35200
C165        C  0.26451811  0.25784781  0.74097154     0.77500
C166        C  0.26197444  0.25488340  0.58479084     0.77600
C167        C  0.26278961  0.19731550  0.66409303     0.77500
C168        C  0.26421203  0.31492398  0.66360724     0.77400
C169        C  0.28945355  0.41168013  0.67877467    -0.05700
C170        C  0.25857538  0.41115998  0.66590751     0.00200
C171        C  0.22933697  0.37854636  0.65341240    -0.08300
C172        C  0.23304242  0.34835075  0.65235236    -0.05700
C173        C  0.26400480  0.34893581  0.66477413     0.00200
C174        C  0.29250420  0.38106329  0.67943555    -0.08300
C175        C  0.32555603  0.38322242  0.69709602     0.62100
H176        H  0.31128014  0.43643911  0.68908188     0.12800
H177        H  0.21129929  0.32359888  0.64192094     0.12800
C178        C  0.19416279  0.37499442  0.64125062     0.62400
F179        F  0.34702060  0.41555001  0.71530132    -0.22800
F180        F  0.34518123  0.37850468  0.66629882    -0.20100
F181        F  0.31611313  0.35758906  0.72681099    -0.19800
F182        F  0.19950137  0.39803955  0.60960661    -0.19900
F183        F  0.17861727  0.38217213  0.67469035    -0.20200
F184        F  0.17047512  0.34128229  0.62802762    -0.22900
C185        C  0.28521040  0.12296621  0.65405449    -0.05700
C186        C  0.25473148  0.09449631  0.67165226     0.00200
C187        C  0.22753851  0.10038393  0.68795061    -0.08300
C188        C  0.23161765  0.13435248  0.68476320    -0.05700
C189        C  0.26183608  0.16271184  0.66646683     0.00200
C190        C  0.28940918  0.15696511  0.65106229    -0.08300
C191        C  0.32265911  0.18587344  0.63016201     0.62100
H192        H  0.30582753  0.11820246  0.64191111     0.12800
H193        H  0.21095716  0.13906195  0.69688056     0.12800
C194        C  0.19466870  0.07149692  0.70951397     0.62400
F195        F  0.34422270  0.17345893  0.61431664    -0.22800
F196        F  0.34227237  0.21220154  0.65793025    -0.20100
F197        F  0.31330427  0.19970167  0.59805917    -0.19800
F198        F  0.20440310  0.05650522  0.74008367    -0.19900
F199        F  0.17388150  0.04590486  0.68159102    -0.20200
F200        F  0.17420673  0.08433274  0.72756768    -0.22900
C201        C  0.46477520  0.34007270  0.65520847    -0.05700
C202        C  0.99579709  0.34129063  0.65953537     0.00200
C203        C  0.02506741  0.37451330  0.67025240    -0.08300
C204        C  0.02130787  0.40468832  0.66898658    -0.05700
C205        C  0.98936137  0.40317371  0.65880944     0.00200
C206        C  0.46079594  0.37017451  0.65713676    -0.08300
C207        C  0.42448864  0.36595548  0.64978304     0.62100
H208        H  0.44205158  0.31470255  0.64846286     0.12800
H209        H  0.04357911  0.43004487  0.67682732     0.12800
C210        C  0.05994727  0.37852266  0.68440443     0.62400
F211        F  0.39961255  0.33154414  0.64024038    -0.22800
F212        F  0.42650759  0.38707036  0.61738380    -0.20100
F213        F  0.41245469  0.37521580  0.68477572    -0.19800
F214        F  0.07662984  0.37109792  0.65241819    -0.16300
F215        F  0.05373080  0.35589870  0.71682862    -0.20200
F216        F  0.08297185  0.41242402  0.69768578    -0.22900
C217        C  0.01974858  0.11886849  0.69310068    -0.05700
C218        C  0.99306716  0.09003631  0.67201719     0.00200
C219        C  0.46785511  0.09426095  0.65212355    -0.08300
C220        C  0.47102494  0.12789016  0.65036295    -0.05700
C221        C  0.99915008  0.15776564  0.66797078     0.00200
C222        C  0.02335727  0.15277426  0.69156929    -0.08300
C223        C  0.05268097  0.18268016  0.71543424     0.62100
H224        H  0.03798019  0.11458628  0.71085109     0.12800
H225        H  0.44906068  0.13039023  0.63953088     0.12800
C226        C  0.43413590  0.06270550  0.63671043     0.62400
F227        F  0.06997715  0.17081114  0.74024860    -0.22800
F228        F  0.03886135  0.19887151  0.74035363    -0.20100
F229        F  0.07744577  0.20718096  0.68846589    -0.19800
F230        F  0.41584141  0.04023839  0.66898109    -0.19900
F231        F  0.44246001  0.04496180  0.60704322    -0.20200
F232        F  0.41171775  0.07261903  0.61921382    -0.22900
C233        C  0.25345004  0.23163057  0.85282990    -0.05700
C234        C  0.26388605  0.26410916  0.87264314     0.00200
C235        C  0.27491422  0.29485873  0.84817714    -0.08300
C236        C  0.27543879  0.29165466  0.80517165    -0.05700
C237        C  0.26475978  0.25918561  0.78605467     0.00200
C238        C  0.25342763  0.22859922  0.80994040    -0.08300
C239        C  0.24189548  0.19302809  0.79000774     0.62100
H240        H  0.24505023  0.20823110  0.87121211     0.12800
H241        H  0.28353799  0.31447052  0.78587140     0.12800
C242        C  0.28549128  0.33082877  0.86654381     0.62400
F243        F  0.23369076  0.16684441  0.81871419    -0.22800
F244        F  0.26891547  0.19523406  0.76475748    -0.20100
F245        F  0.21214813  0.18318035  0.76699253    -0.19800
F246        F  0.31550233  0.34227661  0.88961031    -0.19900
F247        F  0.25804947  0.32875519  0.89091249    -0.20200
F248        F  0.29305457  0.35603020  0.83669127    -0.22900
C249        C  0.22068971  0.97147112  0.86115138    -0.05700
C250        C  0.25891562  0.49883409  0.87903673     0.00200
C251        C  0.28705990  0.52679558  0.85659444    -0.08300
C252        C  0.28578871  0.52628710  0.81353320    -0.05700
C253        C  0.25813858  0.49848928  0.79235419     0.00200
C254        C  0.21808265  0.97236508  0.81835580    -0.08300
C255        C  0.18251169  0.94808157  0.79914343     0.62100
H256        H  0.19760553  0.95415299  0.87967188     0.12800
H257        H  0.30628221  0.54806132  0.79599995     0.12800
C258        C  0.31890810  0.55651670  0.87750989     0.62400
F259        F  0.18516481  0.40858274  0.82117161    -0.22800
F260        F  0.21954478  0.42472205  0.76460398    -0.20100
F261        F  0.17001438  0.96790864  0.78047381    -0.19800
F262        F  0.33268025  0.54267537  0.90479527    -0.19900
F263        F  0.31699808  0.06568038  0.90091904    -0.20200
F264        F  0.34586789  0.05574432  0.84957752    -0.22900
C265        C  0.35205788  0.23393244  0.01029402    -0.05700
C266        C  0.35239875  0.26487760  0.99819910     0.00200
C267        C  0.38500765  0.29462249  0.98564469    -0.08300
C268        C  0.41571977  0.29168211  0.98494577    -0.05700
C269        C  0.41530476  0.26060164  0.99659628     0.00200
C270        C  0.38287909  0.23117458  0.01010216    -0.08300
C271        C  0.38039677  0.19715220  0.02509610     0.62100
H272        H  0.32712534  0.21159556  0.02016733     0.12800
H273        H  0.44062421  0.31397263  0.97492738     0.12800
C274        C  0.38790073  0.32928578  0.97242059     0.62400
F275        F  0.34700134  0.17378141  0.04078976    -0.22800
F276        F  0.40433414  0.20448867  0.05596334    -0.20100
F277        F  0.38747104  0.18051736  0.99296605    -0.19800
F278        F  0.37949054  0.34430383  0.00520252    -0.19900
F279        F  0.36521653  0.32342622  0.94056362    -0.20200
F280        F  0.42180833  0.35349028  0.95890672    -0.22900
C281        C  0.16461096  0.28841408  0.97841292    -0.05700
C282        C  0.16445299  0.25877101  0.99471389     0.00200
C283        C  0.13222120  0.23034654  0.01025894    -0.08300
C284        C  0.10134867  0.23293434  0.00874142    -0.05700
C285        C  0.10142803  0.26255821  0.99226694     0.00200
C286        C  0.13372334  0.29084621  0.97644189    -0.08300
C287        C  0.13577493  0.32266475  0.95545510     0.62100
H288        H  0.18937938  0.30973460  0.96644015     0.12800
H289        H  0.07663350  0.21159180  0.02077701     0.12800
C290        C  0.13010903  0.19768432  0.02919338     0.62400
F291        F  0.16911243  0.34488419  0.93872230    -0.22800
F292        F  0.12803795  0.34217983  0.98314922    -0.20100
F293        F  0.11202990  0.31120035  0.92394269    -0.19800
F294        F  0.15444907  0.20741219  0.06009487    -0.19900
F295        F  0.13696346  0.17893838  0.99946251    -0.20200
F296        F  0.09691052  0.17533326  0.04612180    -0.22900
C297        C  0.52396736  0.28778525  0.79940634    -0.05700
C298        C  0.50320978  0.25456133  0.78171854     0.00200
C299        C  0.97924078  0.22395031  0.80986141    -0.08300
C300        C  0.98315167  0.22783544  0.85247688    -0.05700
C301        C  0.00520912  0.26070716  0.87096470     0.00200
C302        C  0.52631262  0.29258416  0.84218087    -0.08300
C303        C  0.54842918  0.32973623  0.85881250     0.62100
H304        H  0.53786520  0.31023909  0.77910329     0.12800
H305        H  0.96819362  0.20492698  0.87182539     0.12800
C306        C  0.95401811  0.18793341  0.79198992     0.62400
F307        F  0.56470153  0.35443798  0.82783828    -0.22800
F308        F  0.57475810  0.33144370  0.88306011    -0.20100
F309        F  0.52709611  0.33905677  0.88151018    -0.19800
F310        F  0.97135833  0.17881303  0.76251162    -0.19900
F311        F  0.92580756  0.18873973  0.77450479    -0.20200
F312        F  0.94051331  0.16175077  0.82159348    -0.22900
C313        C  0.36906429  0.01305141  0.02146111    -0.05700
C314        C  0.34523567  0.49500368  0.00241752     0.00200
C315        C  0.34923202  0.46622501  0.98837334    -0.08300
C316        C  0.38305036  0.46959565  0.98879044    -0.05700
C317        C  0.41303634  0.50039892  0.00225622     0.00200
C318        C  0.40233285  0.01527005  0.02189726    -0.08300
C319        C  0.43221501  0.04554714  0.04474645     0.62100
H320        H  0.36537826  0.03318741  0.03665764     0.12800
H321        H  0.38634062  0.44781103  0.97823050     0.12800
C322        C  0.31852050  0.43218174  0.97220955     0.62400
F323        F  0.42086293  0.06594565  0.06578928    -0.22800
F324        F  0.45869135  0.06736202  0.01737525    -0.20100
F325        F  0.44578138  0.03234814  0.07304235    -0.19800
F326        F  0.30241880  0.43965707  0.94085745    -0.19900
F327        F  0.29416338  0.41471145  0.00354580    -0.20200
F328        F  0.32947259  0.40944016  0.95669176    -0.22900
C329        C  0.14011131  0.48271853  0.96529693    -0.05700
C330        C  0.16041742  0.49551818  0.00060482     0.00200
C331        C  0.15467471  0.02113849  0.00319487    -0.08300
C332        C  0.12082292  0.01767575  0.00268879    -0.05700
C333        C  0.09583171  0.49524348  0.99487217     0.00200
C334        C  0.10782475  0.48245697  0.96175335    -0.08300
C335        C  0.08708579  0.46958008  0.92256621     0.62100
H336        H  0.15000879  0.47324542  0.94030664     0.12800
H337        H  0.11863989  0.04127757  0.00276142     0.12800
C338        C  0.18688638  0.05804430  0.00287383     0.62400
F339        F  0.03872427  0.91043157  0.03444952    -0.22800
F340        F  0.06956809  0.89058681  0.99864512    -0.20100
F341        F  0.08205371  0.49590014  0.90653146    -0.19800
F342        F  0.20788280  0.06229741  0.96849979    -0.19900
F343        F  0.17311165  0.49292918  0.08865079    -0.20200
F344        F  0.15018364  0.52775632  0.10340247    -0.22900
C345        C  0.47966767  0.00322508  0.85930881    -0.05700
C346        C  0.99339866  0.98541582  0.88054548     0.00200
C347        C  0.96639796  0.46897249  0.85328761    -0.08300
C348        C  0.96636742  0.47064676  0.81020978    -0.05700
C349        C  0.98988210  0.99091302  0.79479921     0.00200
C350        C  0.47828409  0.00625967  0.81658465    -0.08300
C351        C  0.45963066  0.02465705  0.79922343     0.62100
H352        H  0.46718575  0.01373915  0.87974937     0.12800
H353        H  0.94304073  0.45206904  0.79386516     0.12800
C354        C  0.93278226  0.44274406  0.87614924     0.62400
F355        F  0.59454568  0.52429283  0.81437877    -0.22800
F356        F  0.57916819  0.55023025  0.76682942    -0.20100
F357        F  0.48279746  0.05211509  0.77398712    -0.19800
F358        F  0.92400904  0.46015236  0.90574905    -0.19900
F359        F  0.02467030  0.94009666  0.89511690    -0.20200
F360        F  0.99848010  0.90780149  0.83976719    -0.22900
C361        C  0.28437613  0.26436106  0.46915298    -0.05700
C362        C  0.25071424  0.25215667  0.45295579     0.00200
C363        C  0.22098170  0.24038992  0.47972564    -0.08300
C364        C  0.22621593  0.24183403  0.52220018    -0.05700
C365        C  0.26002396  0.25454463  0.53897818     0.00200
C366        C  0.28987636  0.26620146  0.51170401    -0.08300
C367        C  0.32745494  0.28066551  0.52656009     0.62100
H368        H  0.30660706  0.27300438  0.44783490     0.12800
H369        H  0.20349057  0.23301183  0.54271724     0.12800
C370        C  0.18370290  0.22515999  0.46359616     0.62400
F371        F  0.35174074  0.28934053  0.49441445    -0.22800
F372        F  0.32942825  0.25568207  0.55015224    -0.20100
F373        F  0.33736249  0.31090779  0.54934592    -0.19800
F374        F  0.17677757  0.19796197  0.43657433    -0.19900
F375        F  0.18038939  0.25109850  0.44369504    -0.20200
F376        F  0.15828435  0.21181613  0.49477585    -0.22900
C377        C  0.24765141  0.28068079  0.18822925    -0.05700
C378        C  0.24163061  0.24934112  0.20682205     0.00200
C379        C  0.23761344  0.22084143  0.18197840    -0.08300
C380        C  0.24179546  0.22558385  0.13926709    -0.05700
C381        C  0.24940861  0.25750824  0.12045917     0.00200
C382        C  0.25157373  0.28544532  0.14542157    -0.08300
C383        C  0.25767035  0.32010141  0.12762804     0.62100
H384        H  0.25032765  0.30199195  0.20783381     0.12800
H385        H  0.23964893  0.20420989  0.12019962     0.12800
C386        C  0.22807827  0.18521597  0.20012113     0.62400
F387        F  0.25506225  0.34163185  0.15732336    -0.22800
F388        F  0.23254421  0.31363480  0.09852958    -0.20100
F389        F  0.29123527  0.33831198  0.10997978    -0.19800
F390        F  0.19943593  0.17417536  0.22700849    -0.19900
F391        F  0.25662718  0.18769508  0.22067758    -0.20200
F392        F  0.21892352  0.15961278  0.17016570    -0.22900
C393        C  0.26043229  0.97784938  0.48243387    -0.05700
C394        C  0.25643182  0.50345515  0.45886097     0.00200
C395        C  0.28652998  0.50822167  0.48019083    -0.08300
C396        C  0.28559064  0.50886720  0.52333865    -0.05700
C397        C  0.25613206  0.50578033  0.54566397     0.00200
C398        C  0.26139223  0.97729001  0.52544543    -0.08300
C399        C  0.26898609  0.95111751  0.54677873     0.62100
H400        H  0.26605481  0.96002738  0.46476435     0.12800
H401        H  0.30786681  0.51123069  0.54004223     0.12800
C402        C  0.31996220  0.51377400  0.45780733     0.62400
F403        F  0.27492277  0.93025659  0.51912279    -0.22800
F404        F  0.24034014  0.92921956  0.57165520    -0.20100
F405        F  0.29870229  0.96889957  0.57048449    -0.19800
F406        F  0.33045164  0.54022256  0.42885973    -0.19900
F407        F  0.31375082  0.48287991  0.43871442    -0.20200
F408        F  0.34773308  0.52366490  0.48428382    -0.22900
C409        C  0.24988743  0.46911912  0.19227472    -0.05700
C410        C  0.24536879  0.49533637  0.21229718     0.00200
C411        C  0.25143726  0.02005694  0.19015858    -0.08300
C412        C  0.25031278  0.01626375  0.14739725    -0.05700
C413        C  0.24663779  0.49131421  0.12567742     0.00200
C414        C  0.25016650  0.46628392  0.14935533    -0.08300
C415        C  0.25487477  0.43712124  0.12972230     0.62100
H416        H  0.25288786  0.45027093  0.21079048     0.12800
H417        H  0.25245886  0.03760533  0.12856110     0.12800
C418        C  0.25720086  0.05457194  0.20876858     0.62400
F419        F  0.26195067  0.41844225  0.15839970    -0.22800
F420        F  0.28283991  0.45131741  0.10164424    -0.20100
F421        F  0.22416949  0.41358474  0.11015771    -0.19800
F422        F  0.28522985  0.06772258  0.23536056    -0.19900
F423        F  0.22685072  0.04909248  0.22965581    -0.20200
F424        F  0.26505591  0.08004247  0.17918498    -0.22900
C425        C  0.01771455  0.23390212  0.51882193    -0.05700
C426        C  0.49655205  0.24620618  0.53581078     0.00200
C427        C  0.47177891  0.25045258  0.51266487    -0.08300
C428        C  0.47358328  0.24875670  0.46970897    -0.05700
C429        C  0.00030027  0.24441265  0.45234048     0.00200
C430        C  0.01972408  0.23262759  0.47577425    -0.08300
C431        C  0.04267878  0.21890425  0.45629294     0.62100
H432        H  0.03236848  0.22535507  0.53737504     0.12800
H433        H  0.45471478  0.25180140  0.45168474     0.12800
C434        C  0.44424079  0.25783323  0.53281452     0.62400
F435        F  0.05940725  0.20975171  0.48531439    -0.22800
F436        F  0.06872667  0.24464216  0.43149515    -0.20100
F437        F  0.02194244  0.18904968  0.43342611    -0.19800
F438        F  0.46056085  0.28640453  0.55894202    -0.19900
F439        F  0.41971741  0.22856622  0.55468902    -0.20200
F440        F  0.42605929  0.26559363  0.50427423    -0.22900
C441        C  0.34595954  0.11628842  0.35057502    -0.05700
C442        C  0.34404024  0.08656036  0.33112455     0.00200
C443        C  0.37435977  0.09029867  0.30917517    -0.08300
C444        C  0.40532161  0.12375237  0.30760495    -0.05700
C445        C  0.40718190  0.15351320  0.32702789     0.00200
C446        C  0.37698375  0.14959192  0.34944108    -0.08300
C447        C  0.37750152  0.17987906  0.37340977     0.62100
H448        H  0.32275211  0.11308465  0.36731103     0.12800
H449        H  0.42858001  0.12694248  0.29100856     0.12800
C450        C  0.37416104  0.05951847  0.28678070     0.62400
F451        F  0.34695459  0.16897816  0.39702957    -0.22800
F452        F  0.38026343  0.20548748  0.34666660    -0.20100
F453        F  0.40585675  0.19426112  0.39955694    -0.19800
F454        F  0.34579632  0.04404976  0.26069504    -0.19900
F455        F  0.37162257  0.03485536  0.31485910    -0.20200
F456        F  0.40478904  0.07004573  0.26343058    -0.22900
C457        C  0.09634759  0.36562211  0.35805436    -0.05700
C458        C  0.09501385  0.33920175  0.33189571     0.00200
C459        C  0.12570150  0.34609002  0.30846796    -0.08300
C460        C  0.15662674  0.37918164  0.31237990    -0.05700
C461        C  0.15786704  0.40568362  0.33828434     0.00200
C462        C  0.12727007  0.39873980  0.36190434    -0.08300
C463        C  0.12736150  0.42560216  0.39193681     0.62100
H464        H  0.07276072  0.35998646  0.37580785     0.12800
H465        H  0.18019003  0.38487814  0.29453680     0.12800
C466        C  0.12567629  0.31929739  0.27836955     0.62400
F467        F  0.09666855  0.41153572  0.41589634    -0.22800
F468        F  0.12997266  0.45406915  0.37080218    -0.20100
F469        F  0.15568697  0.43703593  0.41787019    -0.19800
F470        F  0.09775537  0.30836001  0.25191238    -0.19900
F471        F  0.12244244  0.29053308  0.29943605    -0.20200
F472        F  0.15666286  0.33322503  0.25495149    -0.22900
C473        C  0.50500082  0.22911988  0.13336616    -0.05700
C474        C  0.00646857  0.25862291  0.11855558     0.00200
C475        C  0.01054263  0.28704877  0.14397033    -0.08300
C476        C  0.00857045  0.28265247  0.18683091    -0.05700
C477        C  0.00286832  0.25127483  0.20509574     0.00200
C478        C  0.50303487  0.22391705  0.17600305    -0.08300
C479        C  0.49745992  0.18908591  0.19260674     0.62100
H480        H  0.50372182  0.20870383  0.11319114     0.12800
H481        H  0.01207968  0.30412689  0.20668562     0.12800
C482        C  0.01642773  0.32175331  0.12656908     0.62400
F483        F  0.49097989  0.16476800  0.16170636    -0.22800
F484        F  0.46863375  0.17458818  0.21950205    -0.20100
F485        F  0.52738746  0.19449805  0.21264564    -0.19800
F486        F  0.98962978  0.31548909  0.09997704    -0.19900
F487        F  0.04883631  0.33892929  0.10607971    -0.20200
F488        F  0.01649106  0.34417192  0.15693217    -0.22900
C489        C  0.02110375  0.00761000  0.48085819    -0.05700
C490        C  0.98628862  0.49815570  0.45472185     0.00200
C491        C  0.46255911  0.50660606  0.48296963    -0.08300
C492        C  0.46397051  0.50456023  0.52595599    -0.05700
C493        C  0.99374183  0.00173655  0.54839710     0.00200
C494        C  0.02392226  0.00848348  0.52371432    -0.08300
C495        C  0.05906617  0.01642613  0.54173660     0.62100
H496        H  0.04353084  0.01199704  0.46156829     0.12800
H497        H  0.44997446  0.51381471  0.54577669     0.12800
C498        C  0.43968814  0.52033521  0.46532152     0.62400
F499        F  0.08387673  0.02052496  0.51172472    -0.22800
F500        F  0.05100483  0.57055045  0.56172560    -0.20100
F501        F  0.07303350  0.04754107  0.56379472    -0.19800
F502        F  0.41544385  0.49561516  0.43890326    -0.19900
F503        F  0.43185019  0.02003274  0.44466966    -0.20200
F504        F  0.42079133  0.52685038  0.49556052    -0.22900
C505        C  0.36637142  0.34435429  0.31941244    -0.05700
C506        C  0.33423838  0.34448928  0.32415055     0.00200
C507        C  0.33531139  0.37757789  0.32760051    -0.08300
C508        C  0.36853071  0.40866606  0.32856662    -0.05700
C509        C  0.40068422  0.40837989  0.32543589     0.00200
C510        C  0.39953142  0.37547520  0.31946287    -0.08300
C511        C  0.43270876  0.37250487  0.31288143     0.62100
H512        H  0.36542699  0.31925004  0.31597992     0.12800
H513        H  0.36955025  0.43378283  0.33232256     0.12800
C514        C  0.30203946  0.38080584  0.33041097     0.62400
F515        F  0.42482667  0.33831866  0.30407486    -0.22800
F516        F  0.45259881  0.38282051  0.34797364    -0.20100
F517        F  0.45255594  0.39344924  0.28016498    -0.19800
F518        F  0.28281761  0.36448096  0.36569626    -0.19900
F519        F  0.28156002  0.36551185  0.29636741    -0.20200
F520        F  0.30975833  0.41560299  0.33175399    -0.22900
C521        C  0.11697047  0.09153983  0.34221176    -0.05700
C522        C  0.08534356  0.09297590  0.34126704     0.00200
C523        C  0.08766354  0.12663733  0.34181490    -0.08300
C524        C  0.12137771  0.15701145  0.33944394    -0.05700
C525        C  0.15301386  0.15555453  0.33860307     0.00200
C526        C  0.15071344  0.12204038  0.34190227    -0.08300
C527        C  0.18321941  0.11786627  0.34567312     0.62100
H528        H  0.11517673  0.06596287  0.34312585     0.12800
H529        H  0.12312459  0.18255404  0.33823858     0.12800
C530        C  0.05524151  0.13123288  0.34562499     0.62400
F531        F  0.17430362  0.08312246  0.35219667    -0.22800
F532        F  0.20292564  0.13729231  0.37864643    -0.20100
F533        F  0.20363629  0.12917076  0.31004351    -0.19800
F534        F  0.03567593  0.11412122  0.38044790    -0.19900
F535        F  0.03463120  0.11772570  0.31135629    -0.20200
F536        F  0.06428210  0.16633969  0.34902787    -0.22900
C537        C  0.49926621  0.47523055  0.19202695    -0.05700
C538        C  0.99826777  0.99770679  0.21439875     0.00200
C539        C  0.99698065  0.02313522  0.18880416    -0.08300
C540        C  0.99734911  0.01888102  0.14601061    -0.05700
C541        C  0.99894993  0.99039206  0.12782081     0.00200
C542        C  0.50057439  0.47153357  0.14924679    -0.08300
C543        C  0.50064917  0.43916287  0.13181977     0.62100
H544        H  0.49794664  0.45483047  0.21175490     0.12800
H545        H  0.99580387  0.03775284  0.12619720     0.12800
C546        C  0.99600300  0.05513300  0.20603690     0.62400
F547        F  0.50375140  0.41898602  0.16212316    -0.22800
F548        F  0.03305020  0.45011673  0.10063768    -0.20100
F549        F  0.46923430  0.41814843  0.11200490    -0.19800
F550        F  0.02307026  0.07263007  0.23346968    -0.19900
F551        F  0.46049347  0.04340846  0.22024100    -0.20200
F552        F  0.00030539  0.07887729  0.17562138    -0.22900
O553        O  0.46492124  0.94353791  0.33602969    -0.71700
O554        O  0.05221588  0.53098340  0.33623521    -0.71900
O555        O  0.00574846  0.98609073  0.39759283    -0.71800
O556        O  0.01127434  0.98561413  0.28126862    -0.71800
O557        O  0.48080130  0.51824238  0.27511911    -0.71700
O558        O  0.47210781  0.51319849  0.39161178    -0.71800
O559        O  0.02281732  0.55873505  0.33292950    -0.71700
O560        O  0.43479906  0.97083581  0.33374504    -0.71900
V561        V  0.00790468  0.98632070  0.33943861     1.35200
V562        V  0.47711240  0.51533323  0.33335322     1.35200
C563        C  0.43526119  0.94213713  0.33463852     0.77500
C564        C  0.05234609  0.56001005  0.33559957     0.77600
C565        C  0.99011519  0.00016123  0.41632133     0.77500
C566        C  0.99987357  0.50331691  0.25353878     0.77400
O567        O  0.05529921  0.77513010  0.33187832    -0.71700
O568        O  0.46965983  0.69063503  0.32458456    -0.71900
O569        O  0.01254234  0.73570695  0.27167999    -0.71800
O570        O  0.00920022  0.72925826  0.38758245    -0.71800
O571        O  0.48734520  0.76122508  0.38785979    -0.71700
O572        O  0.48420841  0.76483205  0.27191552    -0.71800
O573        O  0.44182864  0.72008941  0.33076031    -0.71700
O574        O  0.02810556  0.80532917  0.33419175    -0.71900
V575        V  0.01039170  0.73314190  0.32966124     1.35200
V576        V  0.48631280  0.76248388  0.32986594     1.35200
C577        C  0.05697989  0.80486540  0.33332351     0.77500
C578        C  0.44060942  0.69062530  0.32830892     0.77600
C579        C  0.99868021  0.75099212  0.25338780     0.77500
C580        C  0.99573828  0.74379172  0.40941521     0.77400
O581        O  0.27930911  0.55609481  0.33362293    -0.71700
O582        O  0.19173513  0.96802856  0.33955799    -0.71900
O583        O  0.23824623  0.51437795  0.39496741    -0.71800
O584        O  0.23318996  0.51111128  0.27913345    -0.71800
O585        O  0.26230747  0.97825605  0.27970260    -0.71700
O586        O  0.26435659  0.98282173  0.39621333    -0.71800
O587        O  0.21892130  0.93785281  0.34049581    -0.71700
O588        O  0.30801192  0.52733405  0.33101504    -0.71900
V589        V  0.23624727  0.51210487  0.33699708     1.35200
V590        V  0.26284651  0.98105389  0.33789564     1.35200
C591        C  0.30861326  0.55652911  0.33091025     0.77500
C592        C  0.19003877  0.93830347  0.34036143     0.77600
C593        C  0.25407739  0.50118403  0.41355432     0.77500
C594        C  0.24693601  0.49658151  0.25782244     0.77400
O595        O  0.21811358  0.69296105  0.33730207    -0.71700
O596        O  0.30335467  0.78139232  0.33403345    -0.71900
O597        O  0.26193444  0.73768518  0.39372774    -0.71800
O598        O  0.25979456  0.73668127  0.27750375    -0.71800
O599        O  0.23085357  0.76522101  0.27953686    -0.71700
O600        O  0.22958858  0.76278589  0.39603194    -0.71800
O601        O  0.27271292  0.80815664  0.33839769    -0.71700
O602        O  0.18778954  0.71990697  0.33740169    -0.71900
V603        V  0.26020006  0.73767020  0.33566759     1.35200
V604        V  0.23081721  0.76349780  0.33776480     1.35200
C605        C  0.18821465  0.69116162  0.33772443     0.77500
C606        C  0.30256797  0.80992041  0.33647973     0.77600
C607        C  0.24587313  0.75012181  0.41466842     0.77500
C608        C  0.24511690  0.75087939  0.25858453     0.77400
O609        O  0.47691420  0.52792724  0.00019731    -0.71700
O610        O  0.06158292  0.52398366  0.99527254    -0.71900
O611        O  0.01686587  0.52256949  0.93836931    -0.71800
O612        O  0.01857419  0.52526796  0.05481530    -0.71800
O613        O  0.48145658  0.95796092  0.05859811    -0.71700
O614        O  0.48407645  0.95718520  0.94167440    -0.71800
O615        O  0.02579006  0.95684105  0.00283436    -0.71700
O616        O  0.43989000  0.95875837  0.99965432    -0.71900
V617        V  0.01734879  0.52286281  0.99662986     1.35200
V618        V  0.48331458  0.95858135  0.00016225     1.35200
C619        C  0.44012886  0.98780564  0.00108165     0.77500
C620        C  0.05538307  0.98487955  0.00217395     0.77600
C621        C  0.00030450  0.49354017  0.91951131     0.77500
C622        C  0.00550025  0.49709901  0.07558334     0.77400
O623        O  0.01592017  0.78925440  0.93972817    -0.71700
O624        O  0.01532577  0.78911300  0.05604519    -0.71900
O625        O  0.05962075  0.78991744  0.99695607    -0.71800
O626        O  0.47065522  0.78695700  0.99343160    -0.71800
O627        O  0.44385576  0.72993857  0.99192628    -0.71700
O628        O  0.03182834  0.73281059  0.99620764    -0.71800
O629        O  0.48529991  0.73069585  0.05151948    -0.71700
O630        O  0.49056711  0.73229835  0.93539836    -0.71900
V631        V  0.01512320  0.78809407  0.99788658     1.35200
V632        V  0.48849610  0.73256887  0.99347483     1.35200
C633        C  0.00151133  0.76074743  0.91977030     0.77500
C634        C  0.00149073  0.76055066  0.07594436     0.77600
C635        C  0.06082223  0.76162724  0.99624901     0.77500
C636        C  0.44198766  0.75781834  0.99284737     0.77400
O637        O  0.27688870  0.95807192  0.00226760    -0.71700
O638        O  0.19154817  0.96097419  0.00353587    -0.71900
O639        O  0.23586371  0.96178940  0.94473456    -0.71800
O640        O  0.23270929  0.95772084  0.06133189    -0.71800
O641        O  0.26455401  0.52153808  0.06177361    -0.71700
O642        O  0.26888003  0.52548341  0.94566066    -0.71800
O643        O  0.22321952  0.52380191  0.00389298    -0.71700
O644        O  0.31020321  0.52333573  0.00361623    -0.71900
V645        V  0.23482479  0.96070594  0.00303967     1.35200
V646        V  0.26614584  0.52244017  0.00369609     1.35200
C647        C  0.30646743  0.98604404  0.00299857     0.77500
C648        C  0.19154192  0.98989232  0.00442364     0.77600
C649        C  0.25176177  0.99121409  0.92639993     0.77500
C650        C  0.24711794  0.98572791  0.08231363     0.77400
O651        O  0.30883511  0.78907234  0.00217679    -0.71700
O652        O  0.22059486  0.78652678  0.00290479    -0.71900
O653        O  0.26344806  0.78695082  0.06095685    -0.71800
O654        O  0.26605588  0.78854784  0.94448962    -0.71800
O655        O  0.23960715  0.73124899  0.94378499    -0.71700
O656        O  0.23538867  0.72987414  0.06007475    -0.71800
O657        O  0.19335059  0.72943214  0.00088314    -0.71700
O658        O  0.28159808  0.73200211  0.00224241    -0.71900
V659        V  0.26418855  0.78668211  0.00269915     1.35200
V660        V  0.23798663  0.73173556  0.00186320     1.35200
C661        C  0.31040833  0.76101996  0.00109385     0.77500
C662        C  0.19182873  0.75754441  0.00168202     0.77600
C663        C  0.24865145  0.75818773  0.08056126     0.77500
C664        C  0.25364438  0.76009042  0.92447383     0.77400
O665        O  0.01888644  0.96641641  0.66860806    -0.71700
O666        O  0.01887926  0.55369381  0.66662981    -0.71900
O667        O  0.02083488  0.50816758  0.71925739    -0.71800
O668        O  0.01599951  0.51235388  0.60402095    -0.71800
O669        O  0.46910593  0.98674287  0.60950383    -0.71700
O670        O  0.46739391  0.98240517  0.72589931    -0.71800
O671        O  0.46492967  0.52710290  0.67137035    -0.71700
O672        O  0.46855180  0.94117118  0.66493503    -0.71900
V673        V  0.01716368  0.50952077  0.66176945     1.35200
V674        V  0.46937374  0.98503330  0.66769881     1.35200
C675        C  0.98985656  0.93751859  0.66806247     0.77500
C676        C  0.99038283  0.55475094  0.66977859     0.77600
C677        C  0.99339718  0.49525436  0.74195433     0.77500
C678        C  0.98662381  0.49854086  0.58638676     0.77400
O679        O  0.47509623  0.78095326  0.66209561    -0.71700
O680        O  0.47379771  0.69344569  0.66301532    -0.71900
O681        O  0.47573156  0.73849365  0.72042040    -0.71800
O682        O  0.47293645  0.73537298  0.60460639    -0.71800
O683        O  0.02105647  0.75870094  0.60539722    -0.71700
O684        O  0.02457479  0.76569929  0.72154291    -0.71800
O685        O  0.02333044  0.71912847  0.66629126    -0.71700
O686        O  0.02250542  0.80533294  0.66090402    -0.71900
V687        V  0.47551561  0.73766108  0.66242739     1.35200
V688        V  0.02173526  0.76164130  0.66356400     1.35200
C689        C  0.99397927  0.80620873  0.66391085     0.77500
C690        C  0.99493453  0.68985138  0.66782812     0.77600
C691        C  0.50491848  0.75376681  0.73847539     0.77500
C692        C  0.50083101  0.74752150  0.58273125     0.77400
O693        O  0.28687254  0.51646675  0.72641680    -0.71700
O694        O  0.28588530  0.51891549  0.60988959    -0.71900
O695        O  0.28580537  0.56102856  0.67045903    -0.71800
O696        O  0.27952475  0.97041083  0.67049065    -0.71800
O697        O  0.22231595  0.94281181  0.66973487    -0.71700
O698        O  0.22843405  0.53194096  0.67242050    -0.71800
O699        O  0.22421881  0.98766022  0.61288020    -0.71700
O700        O  0.22174704  0.98550495  0.72893940    -0.71900
V701        V  0.28533415  0.51722181  0.66820551     1.35200
V702        V  0.22419819  0.98727775  0.67093982     1.35200
C703        C  0.24975918  0.99825231  0.74922120     0.77500
C704        C  0.25334017  0.00088662  0.59322276     0.77600
C705        C  0.25680157  0.56125053  0.67205558     0.77500
C706        C  0.25067111  0.94146574  0.66982362     0.77400
O707        O  0.23132410  0.74028450  0.72949658    -0.71700
O708        O  0.22884960  0.73850762  0.61334017    -0.71900
O709        O  0.23056600  0.69590973  0.67118442    -0.71800
O710        O  0.22976131  0.78251279  0.67173378    -0.71800
O711        O  0.28697174  0.81109709  0.66829627    -0.71700
O712        O  0.28794550  0.72477865  0.66838353    -0.71800
O713        O  0.28606000  0.76690977  0.61031014    -0.71700
O714        O  0.28873155  0.76921309  0.72662620    -0.71900
V715        V  0.23121492  0.73977257  0.67139677     1.35200
V716        V  0.28632634  0.76739408  0.66847813     1.35200
C717        C  0.26040974  0.75538403  0.74796530     0.77500
C718        C  0.25707243  0.75294666  0.59173013     0.77600
C719        C  0.25947393  0.69553833  0.66942202     0.77500
C720        C  0.25832092  0.81179508  0.67001489     0.77400
C721        C  0.28425924  0.90949756  0.67304875    -0.05700
C722        C  0.25108965  0.90741805  0.66943317     0.00200
C723        C  0.22040295  0.87358369  0.66576941    -0.08300
C724        C  0.22445927  0.84354575  0.66579317    -0.05700
C725        C  0.25761331  0.84566375  0.66972491     0.00200
C726        C  0.28828224  0.87950124  0.67357161    -0.08300
C727        C  0.32525523  0.88463534  0.67884255     0.62100
H728        H  0.30753576  0.93524276  0.67581124     0.12800
H729        H  0.20126999  0.81775692  0.66278312     0.12800
C730        C  0.18335922  0.86851199  0.66196710     0.62400
F731        F  0.35051250  0.91973945  0.68409756    -0.22800
F732        F  0.33521868  0.87264314  0.64441925    -0.20100
F733        F  0.32563909  0.86651811  0.71314878    -0.19800
F734        F  0.18189878  0.88598881  0.62764768    -0.19900
F735        F  0.17464712  0.88129203  0.69664967    -0.20200
F736        F  0.15786200  0.83333713  0.65803543    -0.22900
C737        C  0.28398931  0.62368320  0.65073428    -0.05700
C738        C  0.25638904  0.59511600  0.67205263     0.00200
C739        C  0.22944962  0.59962132  0.69189107    -0.08300
C740        C  0.23196017  0.63299540  0.69057523    -0.05700
C741        C  0.25964256  0.66157476  0.66939014     0.00200
C742        C  0.28573433  0.65665065  0.64813307    -0.08300
C743        C  0.31429897  0.68521588  0.62106827     0.62100
H744        H  0.30398105  0.61970843  0.63513966     0.12800
H745        H  0.21200671  0.63703712  0.70614568     0.12800
C746        C  0.19825429  0.56973773  0.71469410     0.62400
F747        F  0.33303289  0.67276034  0.59825120    -0.22800
F748        F  0.33817367  0.71278686  0.64490877    -0.20100
F749        F  0.29893795  0.69747586  0.59390274    -0.19800
F750        F  0.21032561  0.55534631  0.74339474    -0.19900
F751        F  0.17690829  0.54399329  0.68720649    -0.20200
F752        F  0.17750528  0.58110814  0.73516715    -0.22900
C753        C  0.47108530  0.84259593  0.65367648    -0.05700
C754        C  0.99401229  0.84037304  0.66461251     0.00200
C755        C  0.02231855  0.87205643  0.68054771    -0.08300
C756        C  0.01942162  0.90273602  0.68100415    -0.05700
C757        C  0.98960985  0.90321805  0.66623209     0.00200
C758        C  0.46725359  0.87277128  0.65478680    -0.08300
C759        C  0.43060825  0.86814487  0.64861385     0.62100
H760        H  0.44804939  0.81708758  0.64842313     0.12800
H761        H  0.04071483  0.92690897  0.69331038     0.12800
C762        C  0.05530512  0.87382213  0.69793111     0.62400
F763        F  0.40552349  0.83343492  0.64070252    -0.22800
F764        F  0.43149874  0.88817253  0.61559766    -0.20100
F765        F  0.41952543  0.87832394  0.68365801    -0.19800
F766        F  0.07462861  0.86893284  0.66687827    -0.16300
F767        F  0.04579097  0.84812928  0.72758297    -0.20200
F768        F  0.07722483  0.90609090  0.71598835    -0.22900
C769        C  0.01870242  0.61741764  0.64981030    -0.05700
C770        C  0.99134225  0.58922253  0.67173028     0.00200
C771        C  0.47006858  0.59687710  0.68833468    -0.08300
C772        C  0.47392334  0.63074167  0.68625455    -0.05700
C773        C  0.99544726  0.65605459  0.66938229     0.00200
C774        C  0.02153607  0.65087695  0.64843220    -0.08300
C775        C  0.05187998  0.67999062  0.62380795     0.62100
H776        H  0.03790391  0.61286304  0.63319098     0.12800
H777        H  0.45529269  0.63623782  0.70270885     0.12800
C778        C  0.43986426  0.56874343  0.71415234     0.62400
F779        F  0.07160723  0.66790000  0.60239525    -0.22800
F780        F  0.07445611  0.70641062  0.64985777    -0.20100
F781        F  0.03870259  0.69366723  0.59564948    -0.19800
F782        F  0.45292650  0.55441277  0.74170229    -0.19900
F783        F  0.41581485  0.54250359  0.68898670    -0.20200
F784        F  0.42182241  0.58226192  0.73642785    -0.22900
C785        C  0.28346324  0.75740164  0.86060527    -0.05700
C786        C  0.25580585  0.76031281  0.87952613     0.00200
C787        C  0.22998759  0.76171054  0.85562607    -0.08300
C788        C  0.23296216  0.76060254  0.81276801    -0.05700
C789        C  0.26059179  0.75761899  0.79336935     0.00200
C790        C  0.28631139  0.75576777  0.81765369    -0.08300
C791        C  0.31566661  0.75056730  0.79881103     0.62100
H792        H  0.30263941  0.75603634  0.87994842     0.12800
H793        H  0.21345205  0.76188933  0.79398530     0.12800
C794        C  0.19903897  0.76345075  0.87562859     0.62400
F795        F  0.33468815  0.74501746  0.82837322    -0.22800
F796        F  0.33908631  0.78016498  0.77662216    -0.20100
F797        F  0.30128812  0.72145881  0.77327721    -0.19800
F798        F  0.21146830  0.79330826  0.89976497    -0.19900
F799        F  0.17949646  0.73392300  0.89987075    -0.20200
F800        F  0.17675402  0.76465775  0.84693348    -0.22900
C801        C  0.23232042  0.47017518  0.85772058    -0.05700
C802        C  0.25233859  0.99320221  0.88122751     0.00200
C803        C  0.28309607  0.01630835  0.85810609    -0.08300
C804        C  0.28076015  0.01705700  0.81528852    -0.05700
C805        C  0.24888422  0.99577273  0.79485715     0.00200
C806        C  0.23171238  0.46907160  0.81470492    -0.08300
C807        C  0.20366400  0.43598341  0.79367773     0.62100
H808        H  0.21151378  0.44857338  0.87515321     0.12800
H809        H  0.30407888  0.03480358  0.79741810     0.12800
C810        C  0.31848441  0.03952943  0.87821774     0.62400
F811        F  0.15717626  0.92665523  0.82792649    -0.22800
F812        F  0.18612052  0.92634566  0.77065319    -0.20100
F813        F  0.17947958  0.44279644  0.77508475    -0.19800
F814        F  0.32646702  0.01939936  0.90360137    -0.19900
F815        F  0.30901857  0.57815626  0.89819554    -0.20200
F816        F  0.34562497  0.57711469  0.84962074    -0.22900
C817        C  0.34450733  0.73032916  0.00921161    -0.05700
C818        C  0.34473041  0.76144931  0.99831540     0.00200
C819        C  0.37678344  0.79070929  0.98351764    -0.08300
C820        C  0.40756898  0.78789552  0.98199936    -0.05700
C821        C  0.40743924  0.75695240  0.99357320     0.00200
C822        C  0.37506292  0.72719141  0.00669035    -0.08300
C823        C  0.37221265  0.69224029  0.01848688     0.62100
H824        H  0.31984296  0.70810601  0.01992397     0.12800
H825        H  0.43228805  0.81015798  0.97144920     0.12800
C826        C  0.37890578  0.82455823  0.96839299     0.62400
F827        F  0.33836922  0.66776165  0.03187892    -0.22800
F828        F  0.39505575  0.69738616  0.04992371    -0.20100
F829        F  0.38041094  0.67790826  0.98482641    -0.19800
F830        F  0.37259343  0.84162258  0.00065785    -0.19900
F831        F  0.35424728  0.81682717  0.93828176    -0.20200
F832        F  0.41193219  0.84774133  0.95162407    -0.22900
C833        C  0.15807718  0.78682361  0.98323184    -0.05700
C834        C  0.15760346  0.75718374  0.00021712     0.00200
C835        C  0.12517474  0.72904778  0.01574036    -0.08300
C836        C  0.09444702  0.73184307  0.01348054    -0.05700
C837        C  0.09494145  0.76160010  0.99672548     0.00200
C838        C  0.12738451  0.78967040  0.98104505    -0.08300
C839        C  0.12998229  0.82232558  0.96146143     0.62100
H840        H  0.18301190  0.80803674  0.97147272     0.12800
H841        H  0.06955281  0.71065299  0.02537042     0.12800
C842        C  0.12276199  0.69656065  0.03559015     0.62400
F843        F  0.16314375  0.84392742  0.94395600    -0.22800
F844        F  0.12389512  0.84185976  0.99084213    -0.20100
F845        F  0.10539478  0.81254955  0.93083911    -0.19800
F846        F  0.14723118  0.70660253  0.06639499    -0.19900
F847        F  0.12920871  0.67709204  0.00645557    -0.20200
F848        F  0.08958222  0.67480927  0.05294014    -0.22900
C849        C  0.51818694  0.78817734  0.80223236    -0.05700
C850        C  0.50570815  0.75530072  0.78347984     0.00200
C851        C  0.99225176  0.72464752  0.81199635    -0.08300
C852        C  0.99430125  0.72850738  0.85474097    -0.05700
C853        C  0.00084816  0.76008059  0.87416035     0.00200
C854        C  0.51827454  0.79177001  0.84518573    -0.08300
C855        C  0.53071811  0.82823955  0.86316996     0.62100
H856        H  0.52721416  0.81104406  0.78263318     0.12800
H857        H  0.99074262  0.70658993  0.87335276     0.12800
C858        C  0.98457156  0.68997334  0.79233031     0.62400
F859        F  0.53984444  0.85358157  0.83305833    -0.22800
F860        F  0.56032782  0.83824381  0.88652626    -0.20100
F861        F  0.50389750  0.82795225  0.88711928    -0.19800
F862        F  0.01191244  0.69556635  0.76540989    -0.19900
F863        F  0.95330806  0.67607861  0.77117792    -0.20200
F864        F  0.98109709  0.66534006  0.82109242    -0.22900
C865        C  0.37528975  0.52595404  0.01562113    -0.05700
C866        C  0.34002598  0.98520212  0.00215158     0.00200
C867        C  0.34415222  0.95840418  0.98210752    -0.08300
C868        C  0.37744417  0.96061197  0.98256269    -0.05700
C869        C  0.40648816  0.98849438  0.00187296     0.00200
C870        C  0.40919137  0.52931923  0.01586143    -0.08300
C871        C  0.44018946  0.56334887  0.03143363     0.62100
H872        H  0.37198815  0.54774687  0.02613056     0.12800
H873        H  0.38113201  0.94044187  0.96745407     0.12800
C874        C  0.31416675  0.92799125  0.95949320     0.62400
F875        F  0.42964842  0.58661056  0.04621628    -0.22800
F876        F  0.46457411  0.58007569  0.99990270    -0.20100
F877        F  0.45614613  0.55601759  0.06307053    -0.19800
F878        F  0.29998771  0.94089112  0.93155229    -0.19900
F879        F  0.28809979  0.90604299  0.98719697    -0.20200
F880        F  0.32560432  0.90783389  0.93805417    -0.22900
C881        C  0.12608903  0.95699012  0.00280646    -0.05700
C882        C  0.15734118  0.99000653  0.00367202     0.00200
C883        C  0.14821388  0.50794367  0.03391183    -0.08300
C884        C  0.11608503  0.50793719  0.03022505    -0.05700
C885        C  0.08956174  0.98467868  0.00206661     0.00200
C886        C  0.09223885  0.95350997  0.00171142    -0.08300
C887        C  0.06012656  0.91655226  0.99999113     0.62100
H888        H  0.12828456  0.93339586  0.00293263     0.12800
H889        H  0.10613223  0.51730023  0.05527737     0.12800
C890        C  0.16828992  0.51970109  0.07366717     0.62400
F891        F  0.05451323  0.44017067  0.93070024    -0.22800
F892        F  0.10462980  0.46050265  0.89316840    -0.20100
F893        F  0.04119735  0.91299554  0.96512874    -0.19800
F894        F  0.20092250  0.54940573  0.06686017    -0.19900
F895        F  0.20612908  0.06326558  0.03793424    -0.20200
F896        F  0.17760381  0.08409134  0.00179005    -0.22900
C897        C  0.53263318  0.50777791  0.85406989    -0.05700
C898        C  0.99754925  0.49288880  0.87419849     0.00200
C899        C  0.99243278  0.95867345  0.85445950    -0.08300
C900        C  0.99036691  0.96188002  0.81182245    -0.05700
C901        C  0.99594812  0.49567914  0.78746754     0.00200
C902        C  0.53322044  0.50898215  0.81091355    -0.08300
C903        C  0.56786996  0.51909027  0.78807554     0.62100
H904        H  0.55649688  0.51431119  0.87040017     0.12800
H905        H  0.98965519  0.94193753  0.79119069     0.12800
C906        C  0.99516475  0.92777620  0.87096338     0.62400
F907        F  0.44745449  0.03842581  0.82981160    -0.22800
F908        F  0.43082931  0.00096480  0.77691610    -0.20100
F909        F  0.56323713  0.49252056  0.76114706    -0.19800
F910        F  0.96509500  0.90594500  0.89389775    -0.19900
F911        F  0.93781047  0.41724065  0.89447064    -0.20200
F912        F  0.90432886  0.42586975  0.85030820    -0.22900
C913        C  0.28133776  0.76804883  0.47689700    -0.05700
C914        C  0.24767674  0.75112572  0.45980081     0.00200
C915        C  0.21722487  0.73556134  0.48569669    -0.08300
C916        C  0.22173463  0.73650790  0.52833232    -0.05700
C917        C  0.25553723  0.75339485  0.54597227     0.00200
C918        C  0.28605571  0.77046614  0.51956835    -0.08300
C919        C  0.32349334  0.79194919  0.53548836     0.62100
H920        H  0.30410335  0.78008083  0.45617089     0.12800
H921        H  0.19851210  0.72404090  0.54826152     0.12800
C922        C  0.18018440  0.71728183  0.46838612     0.62400
F923        F  0.34836686  0.80760653  0.50406110    -0.22800
F924        F  0.33236314  0.77043103  0.55695423    -0.20100
F925        F  0.32576310  0.81867576  0.56063836    -0.19800
F926        F  0.17635456  0.69077802  0.44182595    -0.19900
F927        F  0.17458232  0.74138249  0.44752537    -0.20200
F928        F  0.15425220  0.70232053  0.49886956    -0.22900
C929        C  0.24810055  0.78156482  0.19407835    -0.05700
C930        C  0.24518310  0.75154143  0.21306153     0.00200
C931        C  0.24180115  0.72312435  0.18840668    -0.08300
C932        C  0.24306789  0.72661006  0.14547552    -0.05700
C933        C  0.24719593  0.75716144  0.12630280     0.00200
C934        C  0.24901924  0.78497392  0.15112902    -0.08300
C935        C  0.25114653  0.81788027  0.13295454     0.62100
H936        H  0.25025471  0.80281792  0.21340185     0.12800
H937        H  0.24132780  0.70538684  0.12643195     0.12800
C938        C  0.23592877  0.68882507  0.20700672     0.62400
F939        F  0.24793494  0.83896238  0.16276429    -0.22800
F940        F  0.22401619  0.80846151  0.10568859    -0.20100
F941        F  0.28347709  0.83777302  0.11299586    -0.19800
F942        F  0.20836825  0.67646791  0.23561100    -0.19900
F943        F  0.26645220  0.69432974  0.22566638    -0.20200
F944        F  0.22727655  0.66281088  0.17769237    -0.22900
C945        C  0.22780680  0.50220137  0.48103366    -0.05700
C946        C  0.25152031  0.00037887  0.46163426     0.00200
C947        C  0.24365807  0.02357625  0.48502990    -0.08300
C948        C  0.24502354  0.02302166  0.52803164    -0.05700
C949        C  0.25386939  0.00052839  0.54818435     0.00200
C950        C  0.22716985  0.50374367  0.52406041    -0.08300
C951        C  0.19592874  0.50398622  0.54571321     0.62100
H952        H  0.20540821  0.49942640  0.46421920     0.12800
H953        H  0.23898965  0.04014923  0.54659927     0.12800
C954        C  0.23401336  0.04907812  0.46553212     0.62400
F955        F  0.17445362  0.50826529  0.51845031    -0.22800
F956        F  0.20799649  0.53163471  0.57332860    -0.20100
F957        F  0.17537488  0.47239782  0.56608046    -0.19800
F958        F  0.20220871  0.03044766  0.44559675    -0.19900
F959        F  0.26047017  0.07085233  0.43807139    -0.20200
F960        F  0.23004395  0.07045726  0.49431452    -0.22900
C961        C  0.24415883  0.96119289  0.19521719    -0.05700
C962        C  0.24805167  0.99178057  0.21446724     0.00200
C963        C  0.24050197  0.51960503  0.18839593    -0.08300
C964        C  0.24195045  0.51737890  0.14548231    -0.05700
C965        C  0.24621820  0.98563231  0.12792556     0.00200
C966        C  0.24304321  0.95739448  0.15228195    -0.08300
C967        C  0.23912874  0.92367966  0.13355218     0.62100
H968        H  0.24151963  0.93981082  0.21442315     0.12800
H969        H  0.23899005  0.53609115  0.12662491     0.12800
C970        C  0.23417692  0.54801571  0.20739143     0.62400
F971        F  0.23966038  0.90134856  0.16293616    -0.22800
F972        F  0.26671972  0.93162757  0.10594702    -0.20100
F973        F  0.20719123  0.90572609  0.11377858    -0.19800
F974        F  0.26174221  0.56927150  0.23280433    -0.19900
F975        F  0.20253672  0.53249827  0.22955153    -0.20200
F976        F  0.23198783  0.56946579  0.17803764    -0.22900
C977        C  0.01529931  0.73557545  0.52137785    -0.05700
C978        C  0.49947844  0.74512454  0.53716274     0.00200
C979        C  0.47019182  0.74133727  0.51461940    -0.08300
C980        C  0.47263240  0.74195165  0.47164514    -0.05700
C981        C  0.99431486  0.74156753  0.45507431     0.00200
C982        C  0.01725330  0.73432468  0.47831776    -0.08300
C983        C  0.04405861  0.72572097  0.45844647     0.62100
H984        H  0.03309765  0.73104174  0.53955056     0.12800
H985        H  0.45108974  0.74024934  0.45407530     0.12800
C986        C  0.43639289  0.73686323  0.53507647     0.62400
F987        F  0.06451169  0.72135454  0.48712618    -0.22800
F988        F  0.06672929  0.75281256  0.43248833    -0.20100
F989        F  0.02657511  0.69456681  0.43663231    -0.19800
F990        F  0.44424069  0.76498858  0.56094181    -0.19900
F991        F  0.41988814  0.70563421  0.55703089    -0.20200
F992        F  0.41244944  0.73541929  0.50685825    -0.22900
C993        C  0.34490023  0.61891847  0.35181048    -0.05700
C994        C  0.34267323  0.59051683  0.32895274     0.00200
C995        C  0.37264280  0.59531577  0.30540318    -0.08300
C996        C  0.40386056  0.62842828  0.30611184    -0.05700
C997        C  0.40618131  0.65683813  0.32915441     0.00200
C998        C  0.37620852  0.65190242  0.35288733    -0.08300
C999        C  0.37747328  0.68046236  0.38097136     0.62100
H1000       H  0.32187459  0.61476974  0.36973216     0.12800
H1001       H  0.42694358  0.63237631  0.28850773     0.12800
C1002       C  0.37174135  0.56607825  0.27886496     0.62400
F1003       F  0.34708349  0.66830531  0.40521476    -0.22800
F1004       F  0.38082440  0.70840355  0.35802949    -0.20100
F1005       F  0.40587106  0.69205330  0.40675368    -0.19800
F1006       F  0.34278071  0.55253421  0.25363373    -0.19900
F1007       F  0.36966322  0.53952269  0.30345309    -0.20200
F1008       F  0.40183345  0.57807126  0.25411932    -0.22900
C1009       C  0.09240417  0.86736570  0.35524993    -0.05700
C1010       C  0.09160572  0.83851817  0.33471255     0.00200
C1011       C  0.12320507  0.84302104  0.31534733    -0.08300
C1012       C  0.15457393  0.87581976  0.31875871    -0.05700
C1013       C  0.15540664  0.90463417  0.33940483     0.00200
C1014       C  0.12356974  0.90046389  0.35771931    -0.08300
C1015       C  0.12223340  0.93038007  0.38037712     0.62100
H1016       H  0.06809598  0.86374525  0.36951415     0.12800
H1017       H  0.17886630  0.87943864  0.30443339     0.12800
C1018       C  0.12386528  0.81407572  0.28971258     0.62400
F1019       F  0.08962522  0.91934956  0.39945583    -0.22800
F1020       F  0.12813868  0.95682278  0.35307304    -0.20100
F1021       F  0.14770161  0.94375350  0.41021008    -0.19800
F1022       F  0.09748704  0.80192608  0.26096373    -0.19900
F1023       F  0.11878890  0.78654216  0.31471517    -0.20200
F1024       F  0.15585763  0.82598451  0.26877122    -0.22900
C1025       C  0.49301095  0.72714731  0.13604608    -0.05700
C1026       C  0.00127148  0.75973733  0.12154197     0.00200
C1027       C  0.00417273  0.78767671  0.14698466    -0.08300
C1028       C  0.00301214  0.78349620  0.18985010    -0.05700
C1029       C  0.99944455  0.75286266  0.20797588     0.00200
C1030       C  0.49260792  0.72338177  0.17873283    -0.08300
C1031       C  0.48762045  0.68906603  0.19626596     0.62100
H1032       H  0.49131628  0.70619309  0.11652048     0.12800
H1033       H  0.00544011  0.80453648  0.20977074     0.12800
C1034       C  0.00792446  0.82154767  0.12957011     0.62400
F1035       F  0.47862970  0.66338036  0.16644725    -0.22800
F1036       F  0.46066466  0.67612592  0.22562896    -0.20100
F1037       F  0.51871380  0.69476751  0.21358022    -0.19800
F1038       F  0.98037044  0.81371881  0.10348916    -0.19900
F1039       F  0.03992342  0.83996471  0.10846970    -0.20200
F1040       F  0.00712273  0.84348715  0.16000153    -0.22900
C1041       C  0.00383944  0.53033320  0.47561474    -0.05700
C1042       C  0.99015434  0.00179670  0.46174824     0.00200
C1043       C  0.46306241  0.99852185  0.48253783    -0.08300
C1044       C  0.46616854  0.99772931  0.52532672    -0.05700
C1045       C  0.98542575  0.49980799  0.54119737     0.00200
C1046       C  0.00393770  0.53180793  0.51872092    -0.08300
C1047       C  0.02272893  0.56741388  0.53997554     0.62100
H1048       H  0.01813741  0.55431483  0.45774876     0.12800
H1049       H  0.44326954  0.99110057  0.54488406     0.12800
C1050       C  0.42793080  0.99054269  0.46471287     0.62400
F1051       F  0.03572661  0.59507250  0.51227123    -0.22800
F1052       F  0.05415439  0.98904763  0.56695379    -0.20100
F1053       F  0.99924901  0.57068367  0.56647843    -0.19800
F1054       F  0.41670192  0.96280948  0.43740865    -0.19900
F1055       F  0.46078452  0.55163074  0.44461349    -0.20200
F1056       F  0.40175231  0.98134317  0.49471356    -0.22900
C1057       C  0.36451373  0.84730914  0.31242807    -0.05700
C1058       C  0.33593684  0.84434906  0.33641524     0.00200
C1059       C  0.34020297  0.87373428  0.35988100    -0.08300
C1060       C  0.37309646  0.90511095  0.35816734    -0.05700
C1061       C  0.40174261  0.90791682  0.33452176     0.00200
C1062       C  0.39734152  0.87873193  0.31063888    -0.08300
C1063       C  0.42642979  0.88107544  0.28188946     0.62100
H1064       H  0.36073945  0.82472649  0.29451980     0.12800
H1065       H  0.37677684  0.92787695  0.37556852     0.12800
C1066       C  0.31072403  0.87202178  0.38745755     0.62400
F1067       F  0.41472708  0.85143809  0.25738496    -0.22800
F1068       F  0.45444870  0.88426099  0.30424037    -0.20100
F1069       F  0.43802246  0.90998140  0.25640056    -0.19800
F1070       F  0.29791657  0.84314509  0.41327481    -0.19900
F1071       F  0.28357015  0.86938896  0.36381974    -0.20200
F1072       F  0.32236072  0.90182040  0.41167144    -0.22900
C1073       C  0.11808585  0.59268379  0.33836261    -0.05700
C1074       C  0.08652967  0.59423346  0.33751283     0.00200
C1075       C  0.08885226  0.62790150  0.33860657    -0.08300
C1076       C  0.12256991  0.65827203  0.33842092    -0.05700
C1077       C  0.15414022  0.65676642  0.33843722     0.00200
C1078       C  0.15181544  0.62311745  0.33944920    -0.08300
C1079       C  0.18426890  0.61867735  0.34212445     0.62100
H1080       H  0.11621707  0.56705864  0.33817133     0.12800
H1081       H  0.12439401  0.68387179  0.33831814     0.12800
C1082       C  0.05638017  0.63250900  0.34050037     0.62400
F1083       F  0.17534380  0.58358706  0.34461308    -0.22800
F1084       F  0.20290412  0.63536026  0.37688236    -0.20100
F1085       F  0.20575253  0.63278837  0.30763742    -0.19800
F1086       F  0.03555030  0.61510298  0.37447359    -0.19900
F1087       F  0.03709618  0.61934109  0.30523771    -0.20200
F1088       F  0.06528507  0.66757922  0.34378977    -0.22900
C1089       C  0.49629005  0.96765287  0.19227069    -0.05700
C1090       C  0.00216445  0.50326247  0.20794686     0.00200
C1091       C  0.00322825  0.53024485  0.18302870    -0.08300
C1092       C  0.00511863  0.52733672  0.14013086    -0.05700
C1093       C  0.00516722  0.49826910  0.12124326     0.00200
C1094       C  0.49660932  0.96293413  0.14950487    -0.08300
C1095       C  0.49885787  0.93157299  0.13247460     0.62100
H1096       H  0.49714299  0.94859419  0.21241571     0.12800
H1097       H  0.00559631  0.54754800  0.12080396     0.12800
C1098       C  0.00280994  0.56224230  0.20118050     0.62400
F1099       F  0.50386550  0.91283541  0.16301758    -0.22800
F1100       F  0.03355019  0.94852124  0.10755376    -0.20100
F1101       F  0.46776055  0.90880198  0.11307801    -0.19800
F1102       F  0.02930826  0.57835969  0.22954896    -0.19900
F1103       F  0.46729462  0.55325774  0.22177740    -0.20200
F1104       F  0.00836867  0.58702623  0.17155051    -0.22900
O1105       O  0.96655226  0.44371626  0.32902523    -0.71700
O1106       O  0.55052242  0.03144929  0.33327604    -0.71900
O1107       O  0.50231462  0.48615035  0.39231798    -0.71800
O1108       O  0.51059985  0.49065606  0.27651515    -0.71800
O1109       O  0.98105694  0.01270628  0.27886472    -0.71700
O1110       O  0.97583961  0.01358661  0.39525100    -0.71800
O1111       O  0.52064208  0.05878903  0.33153804    -0.71700
O1112       O  0.93676659  0.47118515  0.32844897    -0.71900
V1113       V  0.50597980  0.48911055  0.33442876     1.35200
V1114       V  0.97906093  0.01260354  0.33710948     1.35200
C1115       C  0.93688342  0.44224083  0.32782313     0.77500
C1116       C  0.55041648  0.06035166  0.33209726     0.77600
C1117       C  0.48552764  0.49849888  0.41203341     0.77500
C1118       C  0.49396910  0.99857999  0.25551952     0.77400
O1119       O  0.55875864  0.27344829  0.32664950    -0.71700
O1120       O  0.97103580  0.19004942  0.32776196    -0.71900
O1121       O  0.51652096  0.23268388  0.26645707    -0.71800
O1122       O  0.51318341  0.22848906  0.38264631    -0.71800
O1123       O  0.98695789  0.26065500  0.38805998    -0.71700
O1124       O  0.98857728  0.26465962  0.27174677    -0.71800
O1125       O  0.94351222  0.21992247  0.32932948    -0.71700
O1126       O  0.53094548  0.30298974  0.32833430    -0.71900
V1127       V  0.51423911  0.23106212  0.32464741     1.35200
V1128       V  0.98821956  0.26210951  0.32993967     1.35200
C1129       C  0.56004021  0.30297611  0.32865008     0.77500
C1130       C  0.94203935  0.19029928  0.32957303     0.77600
C1131       C  0.50315601  0.24819062  0.24755001     0.77500
C1132       C  0.49940221  0.24317994  0.40362712     0.77400
O1133       O  0.78046714  0.05665634  0.34061328    -0.71700
O1134       O  0.69077309  0.46764416  0.33910940    -0.71900
O1135       O  0.73650482  0.01449523  0.40012902    -0.71800
O1136       O  0.73548033  0.01332231  0.28407919    -0.71800
O1137       O  0.76114976  0.48139541  0.27637911    -0.71700
O1138       O  0.76591544  0.48535683  0.39215347    -0.71800
O1139       O  0.72020767  0.43968657  0.33770636    -0.71700
O1140       O  0.80769950  0.02652270  0.33837848    -0.71900
V1141       V  0.73661397  0.01334448  0.34205666     1.35200
V1142       V  0.76288754  0.48391240  0.33429009     1.35200
C1143       C  0.80936434  0.05623278  0.33834276     0.77500
C1144       C  0.69057195  0.43862467  0.33912135     0.77600
C1145       C  0.75134128  0.00084712  0.41972983     0.77500
C1146       C  0.74801926  0.99724522  0.26357928     0.77400
O1147       O  0.71674110  0.19297770  0.33208918    -0.71700
O1148       O  0.80234317  0.28128037  0.32896462    -0.71900
O1149       O  0.76113308  0.23721959  0.38864187    -0.71800
O1150       O  0.75881271  0.23710323  0.27296455    -0.71800
O1151       O  0.73020364  0.26585495  0.27493254    -0.71700
O1152       O  0.72894374  0.26247870  0.39185203    -0.71800
O1153       O  0.77210198  0.30823783  0.33397746    -0.71700
O1154       O  0.68674808  0.22026047  0.33257003    -0.71900
V1155       V  0.75910871  0.23761658  0.33078206     1.35200
V1156       V  0.73002601  0.26368218  0.33335303     1.35200
C1157       C  0.68690633  0.19137838  0.33219245     0.77500
C1158       C  0.80192227  0.31005989  0.33058173     0.77600
C1159       C  0.74534695  0.24962571  0.41003058     0.77500
C1160       C  0.74476344  0.25177158  0.25393005     0.77400
O1161       O  0.96972844  0.01643907  0.00425014    -0.71700
O1162       O  0.55521326  0.01320432  0.99814190    -0.71900
O1163       O  0.51194369  0.01447009  0.94152652    -0.71800
O1164       O  0.51274537  0.01503964  0.05760931    -0.71800
O1165       O  0.99185769  0.46820573  0.05634810    -0.71700
O1166       O  0.98648824  0.46543745  0.94030858    -0.71800
O1167       O  0.53118234  0.46628292  0.99713562    -0.71700
O1168       O  0.94589113  0.46689097  0.00232375    -0.71900
V1169       V  0.51187969  0.01351855  0.99959722     1.35200
V1170       V  0.98991703  0.46791133  0.99828783     1.35200
C1171       C  0.94512979  0.49543105  0.00137266     0.77500
C1172       C  0.56107535  0.49394232  0.99791275     0.77600
C1173       C  0.49789714  0.98584964  0.92178620     0.77500
C1174       C  0.49686201  0.98675735  0.07805986     0.77400
O1175       O  0.52201730  0.29188591  0.93404290    -0.71700
O1176       O  0.52299125  0.29069753  0.05078019    -0.71900
O1177       O  0.56685747  0.29308111  0.99023179    -0.71800
O1178       O  0.97735350  0.28796729  0.99735311    -0.71800
O1179       O  0.94982232  0.23085944  0.99564387    -0.71700
O1180       O  0.53987742  0.23602357  0.99036712    -0.71800
O1181       O  0.99356510  0.23141889  0.05243379    -0.71700
O1182       O  0.99420717  0.23259253  0.93633948    -0.71900
V1183       V  0.52206042  0.29035620  0.99242884     1.35200
V1184       V  0.99451223  0.23309564  0.99435815     1.35200
C1185       C  0.50880693  0.26345567  0.91379821     0.77500
C1186       C  0.50898999  0.26182024  0.07021465     0.77600
C1187       C  0.56861658  0.26513788  0.99008668     0.77500
C1188       C  0.94846874  0.25905358  0.99714905     0.77400
O1189       O  0.77950959  0.46142199  0.00083968    -0.71700
O1190       O  0.69264489  0.46228237  0.00122201    -0.71900
O1191       O  0.73767061  0.46329441  0.94286343    -0.71800
O1192       O  0.73476586  0.46066139  0.05930601    -0.71800
O1193       O  0.76040777  0.01521172  0.06645756    -0.71700
O1194       O  0.76614012  0.01702733  0.95051275    -0.71800
O1195       O  0.72035914  0.01720002  0.00665223    -0.71700
O1196       O  0.80596016  0.01453933  0.00992239    -0.71900
V1197       V  0.73670328  0.46299448  0.00109032     1.35200
V1198       V  0.76266529  0.01489872  0.00844241     1.35200
C1199       C  0.80890067  0.48971463  0.00159475     0.77500
C1200       C  0.69241990  0.49109979  0.00243920     0.77600
C1201       C  0.75310299  0.49245198  0.92399599     0.77500
C1202       C  0.74876365  0.48891841  0.07981851     0.77400
O1203       O  0.81697458  0.29293390  0.99960502    -0.71700
O1204       O  0.72919228  0.29157586  0.99804695    -0.71900
O1205       O  0.77081407  0.29175699  0.05716149    -0.71800
O1206       O  0.77492921  0.29280676  0.94059457    -0.71800
O1207       O  0.74719701  0.23580816  0.94025682    -0.71700
O1208       O  0.74313856  0.23458326  0.05615590    -0.71800
O1209       O  0.70160645  0.23450718  0.99726171    -0.71700
O1210       O  0.78908901  0.23581003  0.99887404    -0.71900
V1211       V  0.77253196  0.29122241  0.99886641     1.35200
V1212       V  0.74584939  0.23631027  0.99819882     1.35200
C1213       C  0.81809326  0.26458786  0.99889291     0.77500
C1214       C  0.70028389  0.26267219  0.99747067     0.77600
C1215       C  0.75564557  0.26288099  0.07652814     0.77500
C1216       C  0.76147356  0.26442927  0.92033461     0.77400
O1217       O  0.51988592  0.46648554  0.66404636    -0.71700
O1218       O  0.52530078  0.05640434  0.67014946    -0.71900
O1219       O  0.52489565  0.01043671  0.72552973    -0.71800
O1220       O  0.52634553  0.01564259  0.60927809    -0.71800
O1221       O  0.95857205  0.48276252  0.60820303    -0.71700
O1222       O  0.96366762  0.48180563  0.72475089    -0.71800
O1223       O  0.96334673  0.02673412  0.67388256    -0.71700
O1224       O  0.96043892  0.43828655  0.66367593    -0.71900
V1225       V  0.52449544  0.01247312  0.66734862     1.35200
V1226       V  0.96207240  0.48265252  0.66642290     1.35200
C1227       C  0.49093397  0.43761691  0.66637126     0.77500
C1228       C  0.49649519  0.05698063  0.66958375     0.77600
C1229       C  0.49585159  0.99552197  0.74551719     0.77500
C1230       C  0.49807809  0.00251600  0.58934782     0.77400
O1231       O  0.96837339  0.27811283  0.66287189    -0.71700
O1232       O  0.97025611  0.19196474  0.66357417    -0.71900
O1233       O  0.96976440  0.23588376  0.72105581    -0.71800
O1234       O  0.96860637  0.23399810  0.60506977    -0.71800
O1235       O  0.52676942  0.26259282  0.59909897    -0.71700
O1236       O  0.53011938  0.26743791  0.71512781    -0.71800
O1237       O  0.52969095  0.22215220  0.65844359    -0.71700
O1238       O  0.52717705  0.30768704  0.65597093    -0.71900
V1239       V  0.97034521  0.23552563  0.66304417     1.35200
V1240       V  0.52733641  0.26439344  0.65716564     1.35200
C1241       C  0.49837054  0.30797707  0.65955119     0.77500
C1242       C  0.50152351  0.19265209  0.66006621     0.77600
C1243       C  0.99859941  0.25223114  0.73969484     0.77500
C1244       C  0.99710064  0.24685749  0.58419504     0.77400
O1245       O  0.77769733  0.01119252  0.73344798    -0.71700
O1246       O  0.78170846  0.01328520  0.61708576    -0.71900
O1247       O  0.78026317  0.05622645  0.67576777    -0.71800
O1248       O  0.78138337  0.46993798  0.66506914    -0.71800
O1249       O  0.72406313  0.44102506  0.66739799    -0.71700
O1250       O  0.72284838  0.02837985  0.67692730    -0.71800
O1251       O  0.72386568  0.48517793  0.61103726    -0.71700
O1252       O  0.72268178  0.48302457  0.72682399    -0.71900
V1253       V  0.77860696  0.01185523  0.67524731     1.35200
V1254       V  0.72447120  0.48470160  0.66892916     1.35200
C1255       C  0.75091226  0.49575877  0.74664071     0.77500
C1256       C  0.75254503  0.50110312  0.59067588     0.77600
C1257       C  0.75171106  0.05730999  0.67657608     0.77500
C1258       C  0.75288987  0.44060713  0.66541186     0.77400
O1259       O  0.73099519  0.23931942  0.72464155    -0.71700
O1260       O  0.72919551  0.23713339  0.60854939    -0.71900
O1261       O  0.72946530  0.19425384  0.66719866    -0.71800
O1262       O  0.73095630  0.28200797  0.66639051    -0.71800
O1263       O  0.78827283  0.30972340  0.66268087    -0.71700
O1264       O  0.78687104  0.22208182  0.66533764    -0.71800
O1265       O  0.78640056  0.26404372  0.60572044    -0.71700
O1266       O  0.78853113  0.26807399  0.72215203    -0.71900
V1267       V  0.73126670  0.23868036  0.66659697     1.35200
V1268       V  0.78642886  0.26537463  0.66399672     1.35200
C1269       C  0.75999429  0.25429452  0.74312985     0.77500
C1270       C  0.75746266  0.25060907  0.58701426     0.77600
C1271       C  0.75800050  0.19316321  0.66664096     0.77500
C1272       C  0.75988444  0.31095278  0.66462268     0.77400
C1273       C  0.78461762  0.40774056  0.67804593    -0.05700
C1274       C  0.75381057  0.40693318  0.66436799     0.00200
C1275       C  0.72551247  0.37455951  0.64998169    -0.08300
C1276       C  0.72919090  0.34434406  0.65027778    -0.05700
C1277       C  0.75980483  0.34503595  0.66431625     0.00200
C1278       C  0.78822600  0.37744466  0.67853288    -0.08300
C1279       C  0.82195088  0.38035207  0.69512458     0.62100
H1280       H  0.80600530  0.43253249  0.68893921     0.12800
H1281       H  0.70777840  0.31955017  0.63942081     0.12800
C1282       C  0.69159678  0.37149234  0.63384674     0.62400
F1283       F  0.84418064  0.41342985  0.71119586    -0.22800
F1284       F  0.84042568  0.37435339  0.66398755    -0.20100
F1285       F  0.81362362  0.35599929  0.72612206    -0.19800
F1286       F  0.69959954  0.39630593  0.60342682    -0.19900
F1287       F  0.67293981  0.37662779  0.66551509    -0.20200
F1288       F  0.66967361  0.33859644  0.61717872    -0.22900
C1289       C  0.77949763  0.11879474  0.65149838    -0.05700
C1290       C  0.75248904  0.09175343  0.67523278     0.00200
C1291       C  0.72735655  0.09829184  0.69624154    -0.08300
C1292       C  0.73025386  0.13173567  0.69241368    -0.05700
C1293       C  0.75728439  0.15877518  0.66865613     0.00200
C1294       C  0.78219503  0.15210430  0.64734899    -0.08300
C1295       C  0.81061598  0.17926293  0.61889612     0.62100
H1296       H  0.79832418  0.11334805  0.63542935     0.12800
H1297       H  0.71130966  0.13712426  0.70828336     0.12800
C1298       C  0.69808417  0.07062168  0.72339476     0.62400
F1299       F  0.82837147  0.16534934  0.59678210    -0.22800
F1300       F  0.83532452  0.20738810  0.64139684    -0.20100
F1301       F  0.79530936  0.19112104  0.59115093    -0.19800
F1302       F  0.71236954  0.05771970  0.75117321    -0.19900
F1303       F  0.67383620  0.04328256  0.69957242    -0.20200
F1304       F  0.68003925  0.08427106  0.74543000    -0.22900
C1305       C  0.96378241  0.33970176  0.64929198    -0.05700
C1306       C  0.49743814  0.34170587  0.66156097     0.00200
C1307       C  0.52743931  0.37490062  0.67082858    -0.08300
C1308       C  0.52348011  0.40492698  0.67245215    -0.05700
C1309       C  0.49100194  0.40343939  0.66554896     0.00200
C1310       C  0.95975406  0.36983595  0.64912627    -0.08300
C1311       C  0.92400026  0.36559707  0.63850095     0.62100
H1312       H  0.94154649  0.31429627  0.64150726     0.12800
H1313       H  0.54622891  0.43024806  0.67927575     0.12800
C1314       C  0.56361628  0.37924715  0.67958543     0.62400
F1315       F  0.90005319  0.33140559  0.62699575    -0.22800
F1316       F  0.92796019  0.38758826  0.60619881    -0.20100
F1317       F  0.90963765  0.37375791  0.67228516    -0.19800
F1318       F  0.57716621  0.37143465  0.64478756    -0.16300
F1319       F  0.56068294  0.35718143  0.71134499    -0.20200
F1320       F  0.58782816  0.41336739  0.69103355    -0.22900
C1321       C  0.52771029  0.12202519  0.67830073    -0.05700
C1322       C  0.49660610  0.09118362  0.66729938     0.00200
C1323       C  0.96933363  0.09527459  0.64783082    -0.08300
C1324       C  0.97264325  0.12896580  0.64677659    -0.05700
C1325       C  0.50195756  0.15869181  0.66177733     0.00200
C1326       C  0.53126318  0.15580182  0.67534211    -0.08300
C1327       C  0.56623624  0.18780489  0.68686807     0.62100
H1328       H  0.54963848  0.11947725  0.68915340     0.12800
H1329       H  0.95452044  0.13322562  0.62876529     0.12800
C1330       C  0.94140125  0.06603422  0.62183100     0.62400
F1331       F  0.59016220  0.17845848  0.70113047    -0.22800
F1332       F  0.56060813  0.20669360  0.71753361    -0.20100
F1333       F  0.58159096  0.20903309  0.65280274    -0.19800
F1334       F  0.91575623  0.04018890  0.64683853    -0.19900
F1335       F  0.95703257  0.05153234  0.59697459    -0.20200
F1336       F  0.92468887  0.07831242  0.59666655    -0.22900
C1337       C  0.74591592  0.23016605  0.85579542    -0.05700
C1338       C  0.76191485  0.26367685  0.87454308     0.00200
C1339       C  0.77715435  0.29431894  0.84913661    -0.08300
C1340       C  0.77659838  0.28985739  0.80628557    -0.05700
C1341       C  0.76044380  0.25640209  0.78819376     0.00200
C1342       C  0.74464373  0.22596734  0.81308657    -0.08300
C1343       C  0.72744229  0.18920084  0.79461402     0.62100
H1344       H  0.73405098  0.20683043  0.87488996     0.12800
H1345       H  0.78814997  0.31259409  0.78627044     0.12800
C1346       C  0.79335600  0.33156069  0.86626195     0.62400
F1347       F  0.71630383  0.16324405  0.82432291    -0.22800
F1348       F  0.75151842  0.18621759  0.76885794    -0.20100
F1349       F  0.69817684  0.18307620  0.77260501    -0.19800
F1350       F  0.82195714  0.33873436  0.89016037    -0.19900
F1351       F  0.76822006  0.33502777  0.88945671    -0.20200
F1352       F  0.80537999  0.35677107  0.83555129    -0.22900
C1353       C  0.71839319  0.97515772  0.86597562    -0.05700
C1354       C  0.75369848  0.49357637  0.87874695     0.00200
C1355       C  0.78415752  0.51697098  0.85536143    -0.08300
C1356       C  0.78186099  0.51658584  0.81245912    -0.05700
C1357       C  0.75034432  0.49379943  0.79223124     0.00200
C1358       C  0.71572953  0.97669901  0.82322642    -0.08300
C1359       C  0.67902124  0.96150502  0.80535024     0.62100
H1360       H  0.69473225  0.96304300  0.88530964     0.12800
H1361       H  0.80485837  0.53465432  0.79434411     0.12800
C1362       C  0.81923387  0.54162157  0.87529650     0.62400
F1363       F  0.66043264  0.42131639  0.82568791    -0.22800
F1364       F  0.69045650  0.42281937  0.76856275    -0.20100
F1365       F  0.67662507  0.98738623  0.78403741    -0.19800
F1366       F  0.82829763  0.52274059  0.90135540    -0.19900
F1367       F  0.82482433  0.05125632  0.90386163    -0.20200
F1368       F  0.84600601  0.03310447  0.85160126    -0.22900
C1369       C  0.85197880  0.23487285  0.01526009    -0.05700
C1370       C  0.85213368  0.26441397  0.99838366     0.00200
C1371       C  0.88391549  0.29164847  0.98032980    -0.08300
C1372       C  0.91442356  0.28837662  0.98060823    -0.05700
C1373       C  0.91433279  0.25897269  0.99769758     0.00200
C1374       C  0.88247960  0.23151000  0.01530260    -0.08300
C1375       C  0.88045480  0.19910072  0.03483449     0.62100
H1376       H  0.82750382  0.21422575  0.02870210     0.12800
H1377       H  0.93886365  0.30895771  0.96701680     0.12800
C1378       C  0.88582242  0.32360009  0.95971843     0.62400
F1379       F  0.84794649  0.17794066  0.05400830    -0.22800
F1380       F  0.90623944  0.20925820  0.06407140    -0.20100
F1381       F  0.88528376  0.17899810  0.00509073    -0.19800
F1382       F  0.88102598  0.34429643  0.98864646    -0.19900
F1383       F  0.85996330  0.31266792  0.93050230    -0.20200
F1384       F  0.91823941  0.34443050  0.94019135    -0.22900
C1385       C  0.66681147  0.29279718  0.98172339    -0.05700
C1386       C  0.66605275  0.26226178  0.99612580     0.00200
C1387       C  0.63317114  0.23287654  0.00859310    -0.08300
C1388       C  0.60238572  0.23539840  0.00586443    -0.05700
C1389       C  0.60305486  0.26583753  0.99124388     0.00200
C1390       C  0.63596443  0.29522453  0.97875661    -0.08300
C1391       C  0.63892477  0.32861475  0.96099820     0.62100
H1392       H  0.69203443  0.31491687  0.97218593     0.12800
H1393       H  0.57721324  0.21327822  0.01550945     0.12800
C1394       C  0.63005923  0.19906188  0.02536847     0.62400
F1395       F  0.67291171  0.35190797  0.94683142    -0.22800
F1396       F  0.63002140  0.34592414  0.99059458    -0.20100
F1397       F  0.61660265  0.31992681  0.92825910    -0.19800
F1398       F  0.65258928  0.20678706  0.05787549    -0.19900
F1399       F  0.63848841  0.18211440  0.99481696    -0.20200
F1400       F  0.59606588  0.17575804  0.03947959    -0.22900
C1401       C  0.02131020  0.28670951  0.80277094    -0.05700
C1402       C  0.99925204  0.25393219  0.78478990     0.00200
C1403       C  0.48453339  0.22455596  0.80703132    -0.08300
C1404       C  0.48732173  0.22905016  0.84969795    -0.05700
C1405       C  0.50777443  0.26242268  0.86800542     0.00200
C1406       C  0.02399292  0.29108844  0.84552397    -0.08300
C1407       C  0.04637229  0.32811214  0.86249682     0.62100
H1408       H  0.03590790  0.30922403  0.78271515     0.12800
H1409       H  0.47294927  0.20611431  0.86915233     0.12800
C1410       C  0.46238289  0.18781674  0.78917849     0.62400
F1411       F  0.06246227  0.35307237  0.83175275    -0.22800
F1412       F  0.07285550  0.32963655  0.88624884    -0.20100
F1413       F  0.02524725  0.33732526  0.88579648    -0.19800
F1414       F  0.48237435  0.18109287  0.76072035    -0.19900
F1415       F  0.43307639  0.18532337  0.77042106    -0.20200
F1416       F  0.45047030  0.16189796  0.81902438    -0.22900
C1417       C  0.86930939  0.01445739  0.02326247    -0.05700
C1418       C  0.84310740  0.48968753  0.00189766     0.00200
C1419       C  0.84750612  0.46162867  0.98599727    -0.08300
C1420       C  0.88125581  0.46482152  0.98697191    -0.05700
C1421       C  0.91069702  0.49484204  0.00268393     0.00200
C1422       C  0.90279510  0.01710624  0.02341766    -0.08300
C1423       C  0.93356851  0.04955482  0.04223914     0.62100
H1424       H  0.86611429  0.03571298  0.03600558     0.12800
H1425       H  0.88499631  0.44369203  0.97493685     0.12800
C1426       C  0.81732389  0.42866354  0.96720952     0.62400
F1427       F  0.92287829  0.07154525  0.06061896    -0.22800
F1428       F  0.95855665  0.06883572  0.01215379    -0.20100
F1429       F  0.94884800  0.03943039  0.07198263    -0.19800
F1430       F  0.80225217  0.43798890  0.93639879    -0.19900
F1431       F  0.79200885  0.40957347  0.99707879    -0.20200
F1432       F  0.82871525  0.40675142  0.95014646    -0.22900
C1433       C  0.63356238  0.47118878  0.97308711    -0.05700
C1434       C  0.65861939  0.49151183  0.00249196     0.00200
C1435       C  0.65360716  0.01992417  0.01096801    -0.08300
C1436       C  0.61990160  0.01658966  0.00872337    -0.05700
C1437       C  0.59408202  0.49200952  0.99826186     0.00200
C1438       C  0.60106845  0.47076039  0.97062552    -0.08300
C1439       C  0.57496406  0.44855108  0.93797723     0.62100
H1440       H  0.63984171  0.45578145  0.95178758     0.12800
H1441       H  0.61737925  0.03987890  0.01252317     0.12800
C1442       C  0.68523277  0.05618389  0.01920763     0.62400
F1443       F  0.53772751  0.90710236  0.02518923    -0.22800
F1444       F  0.57003428  0.89098544  0.98607339    -0.20100
F1445       F  0.56668951  0.46953644  0.91457921    -0.19800
F1446       F  0.70827680  0.06705630  0.98568574    -0.19900
F1447       F  0.67961134  0.50478432  0.08821319    -0.20200
F1448       F  0.65963915  0.54291978  0.09478780    -0.22900
C1449       C  0.99286168  0.01445278  0.86301293    -0.05700
C1450       C  0.49669162  0.98649104  0.87658933     0.00200
C1451       C  0.47024543  0.49066872  0.85724527    -0.08300
C1452       C  0.47050753  0.49163355  0.81418795    -0.05700
C1453       C  0.49534485  0.99277356  0.79068515     0.00200
C1454       C  0.99148408  0.01782430  0.82043068    -0.08300
C1455       C  0.99249028  0.05022968  0.80252517     0.62100
H1456       H  0.99372701  0.03479215  0.88303794     0.12800
H1457       H  0.44643888  0.48576324  0.79875424     0.12800
C1458       C  0.43701780  0.48308003  0.88161077     0.62400
F1459       F  0.08276244  0.57423020  0.81422826    -0.22800
F1460       F  0.04808801  0.56888496  0.76215944    -0.20100
F1461       F  0.02233498  0.06802695  0.77759502    -0.19800
F1462       F  0.44438431  0.51120080  0.90727734    -0.19900
F1463       F  0.55769400  0.97714186  0.89560873    -0.20200
F1464       F  0.54939194  0.94577838  0.83806568    -0.22900
C1465       C  0.78126426  0.26729735  0.47206901    -0.05700
C1466       C  0.74749880  0.25000525  0.45515053     0.00200
C1467       C  0.71731736  0.23224982  0.48108124    -0.08300
C1468       C  0.72205951  0.23285635  0.52364107    -0.05700
C1469       C  0.75589186  0.25071970  0.54119823     0.00200
C1470       C  0.78625561  0.26848713  0.51468645    -0.08300
C1471       C  0.82381676  0.28911511  0.53047944     0.62100
H1472       H  0.80387698  0.28033365  0.45126271     0.12800
H1473       H  0.69896378  0.21925181  0.54357782     0.12800
C1474       C  0.68037592  0.21192572  0.46375154     0.62400
F1475       F  0.84868623  0.30462739  0.49901227    -0.22800
F1476       F  0.83203909  0.26680836  0.55131035    -0.20100
F1477       F  0.82685890  0.31581710  0.55621437    -0.19800
F1478       F  0.67886117  0.18721814  0.43577181    -0.19900
F1479       F  0.67222630  0.23491430  0.44444679    -0.20200
F1480       F  0.65484364  0.19429670  0.49402673    -0.22900
C1481       C  0.74355936  0.28049224  0.18910758    -0.05700
C1482       C  0.74639375  0.25333509  0.20829775     0.00200
C1483       C  0.75126812  0.22896158  0.18355754    -0.08300
C1484       C  0.75477076  0.23385385  0.14092542    -0.05700
C1485       C  0.75283696  0.26141302  0.12190657     0.00200
C1486       C  0.74633087  0.28482669  0.14618335    -0.08300
C1487       C  0.74098333  0.31336521  0.12707393     0.62100
H1488       H  0.73950944  0.29869701  0.20811835     0.12800
H1489       H  0.75936450  0.21603562  0.12181778     0.12800
C1490       C  0.75184962  0.19718187  0.20125963     0.62400
F1491       F  0.73080399  0.33022944  0.15597601    -0.22800
F1492       F  0.71474063  0.29855320  0.09820085    -0.20100
F1493       F  0.77218515  0.33855679  0.10854254    -0.19800
F1494       F  0.72245441  0.17844501  0.22658276    -0.19900
F1495       F  0.78241464  0.20809421  0.22308855    -0.20200
F1496       F  0.75108513  0.17436350  0.17098776    -0.22900
C1497       C  0.75918776  0.97785412  0.48564538    -0.05700
C1498       C  0.75409946  0.50180725  0.45849753     0.00200
C1499       C  0.78254441  0.50297032  0.48031973    -0.08300
C1500       C  0.78107300  0.50315634  0.52344170    -0.05700
C1501       C  0.75259238  0.50256883  0.54527879     0.00200
C1502       C  0.76036692  0.97689689  0.52863033    -0.08300
C1503       C  0.76678223  0.94971908  0.54944422     0.62100
H1504       H  0.76280838  0.95893009  0.46754442     0.12800
H1505       H  0.80197583  0.50294963  0.54056664     0.12800
C1506       C  0.81468823  0.50464135  0.45866626     0.62400
F1507       F  0.77118012  0.92812808  0.52140227    -0.22800
F1508       F  0.73821446  0.92868735  0.57492015    -0.20100
F1509       F  0.79704055  0.96657911  0.57246426    -0.19800
F1510       F  0.82835432  0.53137067  0.42975082    -0.19900
F1511       F  0.80518017  0.47277282  0.43975084    -0.20200
F1512       F  0.84138119  0.51143097  0.48570371    -0.22900
C1513       C  0.75228809  0.46869396  0.19218280    -0.05700
C1514       C  0.74484583  0.49331346  0.21165526     0.00200
C1515       C  0.74920800  0.02267581  0.19322054    -0.08300
C1516       C  0.74857381  0.01834433  0.15046920    -0.05700
C1517       C  0.74717568  0.48879353  0.12511016     0.00200
C1518       C  0.75326211  0.46572414  0.14929588    -0.08300
C1519       C  0.76201752  0.43901582  0.13014154     0.62100
H1520       H  0.75716882  0.45127761  0.21102590     0.12800
H1521       H  0.75185663  0.03979520  0.13097729     0.12800
C1522       C  0.75432884  0.05717742  0.21107634     0.62400
F1523       F  0.77136533  0.42245936  0.15924908    -0.22800
F1524       F  0.79016971  0.45570451  0.10258752    -0.20100
F1525       F  0.73285847  0.41330499  0.11001793    -0.19800
F1526       F  0.78293618  0.07158439  0.23685065    -0.19900
F1527       F  0.72410720  0.05116725  0.23271280    -0.20200
F1528       F  0.76068178  0.08180122  0.18092116    -0.22900
C1529       C  0.52219188  0.24073342  0.51550848    -0.05700
C1530       C  0.99677448  0.24569020  0.53902740     0.00200
C1531       C  0.97716776  0.25705312  0.51600588    -0.08300
C1532       C  0.97930331  0.25615991  0.47307015    -0.05700
C1533       C  0.49910156  0.24302394  0.44920126     0.00200
C1534       C  0.52401342  0.23891850  0.47256028    -0.08300
C1535       C  0.55291700  0.23333017  0.45289153     0.62100
H1536       H  0.54077909  0.23749561  0.53387906     0.12800
H1537       H  0.96429866  0.26476651  0.45531548     0.12800
C1538       C  0.95508498  0.27130122  0.53650816     0.62400
F1539       F  0.57567020  0.23297762  0.48158101    -0.22800
F1540       F  0.57297168  0.26031754  0.42549575    -0.20100
F1541       F  0.53784920  0.20127169  0.43272532    -0.19800
F1542       F  0.97574742  0.29817803  0.56321318    -0.19900
F1543       F  0.92680499  0.24462345  0.55788154    -0.20200
F1544       F  0.94161506  0.28476239  0.50831158    -0.22900
C1545       C  0.84560125  0.12015041  0.35365211    -0.05700
C1546       C  0.84403347  0.08990192  0.33607909     0.00200
C1547       C  0.87499095  0.09294603  0.31642575    -0.08300
C1548       C  0.90597998  0.12627881  0.31466896    -0.05700
C1549       C  0.90747607  0.15655591  0.33202303     0.00200
C1550       C  0.87678967  0.15333409  0.35259592    -0.08300
C1551       C  0.87685068  0.18422403  0.37462948     0.62100
H1552       H  0.82199809  0.11749331  0.36883068     0.12800
H1553       H  0.92961161  0.12896405  0.29954084     0.12800
C1554       C  0.87563944  0.06154633  0.29678809     0.62400
F1555       F  0.84581508  0.17390731  0.39707492    -0.22800
F1556       F  0.88025330  0.20914223  0.34640488    -0.20100
F1557       F  0.90459403  0.19928672  0.40160557    -0.19800
F1558       F  0.84868156  0.04554279  0.26893059    -0.19900
F1559       F  0.87154408  0.03758149  0.32674307    -0.20200
F1560       F  0.90729733  0.07132378  0.27598485    -0.22900
C1561       C  0.59314904  0.36597784  0.34955796    -0.05700
C1562       C  0.59434188  0.33688613  0.33232614     0.00200
C1563       C  0.62775707  0.34120415  0.31948085    -0.08300
C1564       C  0.65812474  0.37478990  0.32262956    -0.05700
C1565       C  0.65678591  0.40404660  0.33889791     0.00200
C1566       C  0.62372468  0.39931650  0.35381060    -0.08300
C1567       C  0.62042488  0.42870095  0.37519476     0.62100
H1568       H  0.56777180  0.36234584  0.36010983     0.12800
H1569       H  0.68349076  0.37852739  0.31188547     0.12800
C1570       C  0.63185784  0.31096098  0.30211142     0.62400
F1571       F  0.58712638  0.41659254  0.39290925    -0.22800
F1572       F  0.62614040  0.45466933  0.34727194    -0.20100
F1573       F  0.64487618  0.44302842  0.40606998    -0.19800
F1574       F  0.61014417  0.29629178  0.26886592    -0.19900
F1575       F  0.62309402  0.28560055  0.33203707    -0.20200
F1576       F  0.66627478  0.32189791  0.28895581    -0.22900
C1577       C  0.00009317  0.22700845  0.13707349    -0.05700
C1578       C  0.50875329  0.26012094  0.11583224     0.00200
C1579       C  0.51062953  0.28715668  0.14206809    -0.08300
C1580       C  0.50883610  0.28198507  0.18477905    -0.05700
C1581       C  0.50525979  0.25106090  0.20213795     0.00200
C1582       C  0.99806324  0.22266614  0.17984396    -0.08300
C1583       C  0.98984519  0.18727701  0.19757070     0.62100
H1584       H  0.99698786  0.20547255  0.11761563     0.12800
H1585       H  0.51053858  0.30243502  0.20522341     0.12800
C1586       C  0.51373758  0.32102126  0.12561271     0.62400
F1587       F  0.98067674  0.16175104  0.16751601    -0.22800
F1588       F  0.96170592  0.17553459  0.22531097    -0.20100
F1589       F  0.01924358  0.19060811  0.21697787    -0.19800
F1590       F  0.48657696  0.31314561  0.09890195    -0.19900
F1591       F  0.54604998  0.34057237  0.10548274    -0.20200
F1592       F  0.51159206  0.34183058  0.15660035    -0.22900
C1593       C  0.52514113  0.01496566  0.47527833    -0.05700
C1594       C  0.48265674  0.49569883  0.45781606     0.00200
C1595       C  0.96665228  0.46637962  0.47706322    -0.08300
C1596       C  0.96635588  0.46780148  0.52018137    -0.05700
C1597       C  0.49826805  0.00558581  0.54369864     0.00200
C1598       C  0.52885495  0.01591852  0.51806916    -0.08300
C1599       C  0.56541459  0.02806212  0.53497634     0.62100
H1600       H  0.54777681  0.02154071  0.45522712     0.12800
H1601       H  0.95212816  0.44372819  0.53789505     0.12800
C1602       C  0.94588837  0.43126877  0.45536020     0.62400
F1603       F  0.59084509  0.03671365  0.50415793    -0.22800
F1604       F  0.49980263  0.43646248  0.56676338    -0.20100
F1605       F  0.57571776  0.05788412  0.55874700    -0.19800
F1606       F  0.96892643  0.42350177  0.43390403    -0.19900
F1607       F  0.93381428  0.02257697  0.44715756    -0.20200
F1608       F  0.92629259  0.40400545  0.48265331    -0.22900
C1609       C  0.86758171  0.34362674  0.32830229    -0.05700
C1610       C  0.83578012  0.34463288  0.32844064     0.00200
C1611       C  0.83760499  0.37800327  0.32538748    -0.08300
C1612       C  0.87111554  0.40878159  0.32541053    -0.05700
C1613       C  0.90291873  0.40776564  0.32643510     0.00200
C1614       C  0.90107024  0.37427953  0.32630705    -0.08300
C1615       C  0.93378829  0.37012067  0.32352735     0.62100
H1616       H  0.86610181  0.31820636  0.32969018     0.12800
H1617       H  0.87261792  0.43423258  0.32452051     0.12800
C1618       C  0.80485491  0.38176392  0.32125822     0.62400
F1619       F  0.92521656  0.33511819  0.32084023    -0.22800
F1620       F  0.95392767  0.38412527  0.35804121    -0.20100
F1621       F  0.95364665  0.38702117  0.28877944    -0.19800
F1622       F  0.78396458  0.36983565  0.35649498    -0.19900
F1623       F  0.78574184  0.36263892  0.28780146    -0.20200
F1624       F  0.81340063  0.41646563  0.31527310    -0.22900
C1625       C  0.61617238  0.09300461  0.33194704    -0.05700
C1626       C  0.58468033  0.09467978  0.33160264     0.00200
C1627       C  0.58724322  0.12845922  0.33096649    -0.08300
C1628       C  0.62110439  0.15876129  0.33125090    -0.05700
C1629       C  0.65260530  0.15707326  0.33181243     0.00200
C1630       C  0.65002409  0.12329463  0.33182867    -0.08300
C1631       C  0.68236640  0.11850168  0.33149179     0.62100
H1632       H  0.61416193  0.06732610  0.33223755     0.12800
H1633       H  0.62311543  0.18444178  0.33102270     0.12800
C1634       C  0.55489657  0.13324212  0.33006941     0.62400
F1635       F  0.67327748  0.08329645  0.33144028    -0.22800
F1636       F  0.70208789  0.13380910  0.36600968    -0.20100
F1637       F  0.70283315  0.13374957  0.29660510    -0.19800
F1638       F  0.53398790  0.11850453  0.36482371    -0.19900
F1639       F  0.53557871  0.11742571  0.29546045    -0.20200
F1640       F  0.56399789  0.16843871  0.32901806    -0.22900
C1641       C  0.00337368  0.47480378  0.18911463    -0.05700
C1642       C  0.49430981  0.99619181  0.20993657     0.00200
C1643       C  0.49359900  0.02161638  0.18383153    -0.08300
C1644       C  0.49467333  0.01724239  0.14117980    -0.05700
C1645       C  0.49565714  0.98826134  0.12356489     0.00200
C1646       C  0.00446768  0.47148202  0.14623372    -0.08300
C1647       C  0.00495938  0.43946067  0.12826975     0.62100
H1648       H  0.00240872  0.45437894  0.20849726     0.12800
H1649       H  0.49435510  0.03653491  0.12097590     0.12800
C1650       C  0.49260926  0.05378478  0.20036825     0.62400
F1651       F  0.00871893  0.41937990  0.15815229    -0.22800
F1652       F  0.52889339  0.44926287  0.10455091    -0.20100
F1653       F  0.97346385  0.41810345  0.10876446    -0.19800
F1654       F  0.51994978  0.07179379  0.22729079    -0.19900
F1655       F  0.96372834  0.04460756  0.22557922    -0.20200
F1656       F  0.49643229  0.07698611  0.16949291    -0.22900
O1657       O  0.96575761  0.94179720  0.33830121    -0.71700
O1658       O  0.54916202  0.53247848  0.33791201    -0.71900
O1659       O  0.50708564  0.98954616  0.39282852    -0.71800
O1660       O  0.50856216  0.98545450  0.27663164    -0.71800
O1661       O  0.98325926  0.51615808  0.27253546    -0.71700
O1662       O  0.97631980  0.51415638  0.38890277    -0.71800
O1663       O  0.51934928  0.55991276  0.33707024    -0.71700
O1664       O  0.93560581  0.96909788  0.33639761    -0.71900
V1665       V  0.50716378  0.98801544  0.33470517     1.35200
V1666       V  0.98034795  0.51453211  0.33074175     1.35200
C1667       C  0.93611853  0.94039872  0.33664028     0.77500
C1668       C  0.54908994  0.56141839  0.33846386     0.77600
C1669       C  0.49171975  0.00374968  0.41179817     0.77500
C1670       C  0.49684138  0.50487742  0.25586385     0.77400
O1671       O  0.55767858  0.77679111  0.32458875    -0.71700
O1672       O  0.96656450  0.69002847  0.32726255    -0.71900
O1673       O  0.51257805  0.73584298  0.26657760    -0.71800
O1674       O  0.51500246  0.73153065  0.38236118    -0.71800
O1675       O  0.98306764  0.76037491  0.39123973    -0.71700
O1676       O  0.98439887  0.76501398  0.27489263    -0.71800
O1677       O  0.93929879  0.72013893  0.33225640    -0.71700
O1678       O  0.52969731  0.80601588  0.32953485    -0.71900
V1679       V  0.51319860  0.73427253  0.32454121     1.35200
V1680       V  0.98423739  0.76215123  0.33304587     1.35200
C1681       C  0.55891418  0.80625538  0.32760122     0.77500
C1682       C  0.93772695  0.69049095  0.32977704     0.77600
C1683       C  0.49761491  0.75056190  0.24938959     0.77500
C1684       C  0.50180419  0.74587590  0.40494501     0.77400
O1685       O  0.77712851  0.55509988  0.33329408    -0.71700
O1686       O  0.69182438  0.97116086  0.34298401    -0.71900
O1687       O  0.73605951  0.51293728  0.39431654    -0.71800
O1688       O  0.73207269  0.50967919  0.27813573    -0.71800
O1689       O  0.76192254  0.98236497  0.28282691    -0.71700
O1690       O  0.76480517  0.98544398  0.39928531    -0.71800
O1691       O  0.71921851  0.94129178  0.34308225    -0.71700
O1692       O  0.80662929  0.52709982  0.33054159    -0.71900
V1693       V  0.73455581  0.51079807  0.33619490     1.35200
V1694       V  0.76291173  0.98448912  0.34101715     1.35200
C1695       C  0.80663826  0.55604666  0.33063146     0.77500
C1696       C  0.69022501  0.94146694  0.34231932     0.77600
C1697       C  0.75218445  0.50010404  0.41309484     0.77500
C1698       C  0.74595269  0.49498981  0.25726290     0.77400
O1699       O  0.71581472  0.69277336  0.33508367    -0.71700
O1700       O  0.80281965  0.77974513  0.33243819    -0.71900
O1701       O  0.76022522  0.73641044  0.39164648    -0.71800
O1702       O  0.75878686  0.73616729  0.27558448    -0.71800
O1703       O  0.73098262  0.76581176  0.27745576    -0.71700
O1704       O  0.72963399  0.76333981  0.39394155    -0.71800
O1705       O  0.77355723  0.80796000  0.33642616    -0.71700
O1706       O  0.68681692  0.72105898  0.33556919    -0.71900
V1707       V  0.75879858  0.73676741  0.33366559     1.35200
V1708       V  0.73078843  0.76399226  0.33571788     1.35200
C1709       C  0.68629392  0.69183493  0.33611653     0.77500
C1710       C  0.80297278  0.80873248  0.33505178     0.77600
C1711       C  0.74503865  0.74974918  0.41259704     0.77500
C1712       C  0.74498560  0.75116858  0.25657570     0.77400
O1713       O  0.97425096  0.52392552  0.99821397    -0.71700
O1714       O  0.56210601  0.52340045  0.99993175    -0.71900
O1715       O  0.52048562  0.52599791  0.94183160    -0.71800
O1716       O  0.51855161  0.52598969  0.05809200    -0.71800
O1717       O  0.98417470  0.95945159  0.06327636    -0.71700
O1718       O  0.98151788  0.95694772  0.94656883    -0.71800
O1719       O  0.52556663  0.95623791  0.00107126    -0.71700
O1720       O  0.94001876  0.95936649  0.00707005    -0.71900
V1721       V  0.51901887  0.52475333  0.99999708     1.35200
V1722       V  0.98346461  0.95920916  0.00489422     1.35200
C1723       C  0.94019823  0.98837595  0.00623838     0.77500
C1724       C  0.55514475  0.98426604  0.00005019     0.77600
C1725       C  0.50336316  0.49759481  0.92216105     0.77500
C1726       C  0.50374716  0.49749514  0.07823637     0.77400
O1727       O  0.51723525  0.78925538  0.93629140    -0.71700
O1728       O  0.51255874  0.78776632  0.05261573    -0.71900
O1729       O  0.55912926  0.78996413  0.99578159    -0.71800
O1730       O  0.97166812  0.78839402  0.99893906    -0.71800
O1731       O  0.94400662  0.73121583  0.99957345    -0.71700
O1732       O  0.53213845  0.73295469  0.99504179    -0.71800
O1733       O  0.98804172  0.73204044  0.05584727    -0.71700
O1734       O  0.98765939  0.73217628  0.93979745    -0.71900
V1735       V  0.51439161  0.78741671  0.99444590     1.35200
V1736       V  0.98845010  0.73316859  0.99782959     1.35200
C1737       C  0.50467321  0.76107792  0.91575094     0.77500
C1738       C  0.49797282  0.75895988  0.07205445     0.77600
C1739       C  0.56088391  0.76198711  0.99593380     0.77500
C1740       C  0.94278170  0.75946031  0.00005456     0.77400
O1741       O  0.77618478  0.95750017  0.00707017    -0.71700
O1742       O  0.69072515  0.96019638  0.00781708    -0.71900
O1743       O  0.73458534  0.95985436  0.94918849    -0.71800
O1744       O  0.73207472  0.95815091  0.06578077    -0.71800
O1745       O  0.76352325  0.51788062  0.06067335    -0.71700
O1746       O  0.76700505  0.52049005  0.94475547    -0.71800
O1747       O  0.72176405  0.51951592  0.00287783    -0.71700
O1748       O  0.80853176  0.51849469  0.00268923    -0.71900
V1749       V  0.73400653  0.95999468  0.00749634     1.35200
V1750       V  0.76462798  0.51796979  0.00269792     1.35200
C1751       C  0.80574914  0.98550094  0.00805786     0.77500
C1752       C  0.69076637  0.98911860  0.00692190     0.77600
C1753       C  0.75103297  0.98885129  0.93010462     0.77500
C1754       C  0.74534899  0.98647506  0.08616057     0.77400
O1755       O  0.80904801  0.78887120  0.99931404    -0.71700
O1756       O  0.72091340  0.78637873  0.00070132    -0.71900
O1757       O  0.76451324  0.78796442  0.05837640    -0.71800
O1758       O  0.76519066  0.78685768  0.94168879    -0.71800
O1759       O  0.73945258  0.72961334  0.94279787    -0.71700
O1760       O  0.73578827  0.73087531  0.05885057    -0.71800
O1761       O  0.69354481  0.72933819  0.99941102    -0.71700
O1762       O  0.78189586  0.73175596  0.00206998    -0.71900
V1763       V  0.76439953  0.78643315  0.00003773     1.35200
V1764       V  0.73817507  0.73149074  0.00079824     1.35200
C1765       C  0.81063389  0.76084381  0.00030508     0.77500
C1766       C  0.69204783  0.75748714  0.00009747     0.77600
C1767       C  0.74966979  0.75952371  0.07865105     0.77500
C1768       C  0.75265661  0.75792650  0.92254584     0.77400
O1769       O  0.52578960  0.96960636  0.66400368    -0.71700
O1770       O  0.52197462  0.55430932  0.66288374    -0.71900
O1771       O  0.52515982  0.51327156  0.72132487    -0.71800
O1772       O  0.51687537  0.50745838  0.60584151    -0.71800
O1773       O  0.96365701  0.98456801  0.61387371    -0.71700
O1774       O  0.96152609  0.98110072  0.73048629    -0.71800
O1775       O  0.96147359  0.52586951  0.66968433    -0.71700
O1776       O  0.96154438  0.93889767  0.66995287    -0.71900
V1777       V  0.51985719  0.50986573  0.66368034     1.35200
V1778       V  0.96359921  0.98337535  0.67215243     1.35200
C1779       C  0.49716173  0.94033859  0.66343589     0.77500
C1780       C  0.49376528  0.55576641  0.66722133     0.77600
C1781       C  0.49820551  0.49954089  0.74484578     0.77500
C1782       C  0.48694392  0.49353689  0.58941674     0.77400
O1783       O  0.96524955  0.77706519  0.66641978    -0.71700
O1784       O  0.96593667  0.69011452  0.66839545    -0.71900
O1785       O  0.96705021  0.73554948  0.72524978    -0.71800
O1786       O  0.96366586  0.73142498  0.60915496    -0.71800
O1787       O  0.53015770  0.76170292  0.60080640    -0.71700
O1788       O  0.53326542  0.76805840  0.71714965    -0.71800
O1789       O  0.53123660  0.72127976  0.66140148    -0.71700
O1790       O  0.53225518  0.80861858  0.65653983    -0.71900
V1791       V  0.96654906  0.73406569  0.66717117     1.35200
V1792       V  0.53066743  0.76440727  0.65905124     1.35200
C1793       C  0.50392692  0.80993895  0.65927920     0.77500
C1794       C  0.50233069  0.69241491  0.66235556     0.77600
C1795       C  0.99635592  0.75150727  0.74304281     0.77500
C1796       C  0.99171594  0.74430062  0.58739762     0.77400
O1797       O  0.77995201  0.51056488  0.72648587    -0.71700
O1798       O  0.78122727  0.51529912  0.61005710    -0.71900
O1799       O  0.78009602  0.55611331  0.67151013    -0.71800
O1800       O  0.77909502  0.96857990  0.67453508    -0.71800
O1801       O  0.72189470  0.94094498  0.67150082    -0.71700
O1802       O  0.72276354  0.52735312  0.67054339    -0.71800
O1803       O  0.72421256  0.98708617  0.61618321    -0.71700
O1804       O  0.72050569  0.98197247  0.73235450    -0.71900
V1805       V  0.77960824  0.51246450  0.66830512     1.35200
V1806       V  0.72347237  0.98516964  0.67428744     1.35200
C1807       C  0.74839808  0.99549838  0.75298073     0.77500
C1808       C  0.75356778  0.00045914  0.59693763     0.77600
C1809       C  0.75124332  0.55657858  0.67175913     0.77500
C1810       C  0.75023857  0.93966390  0.67256956     0.77400
O1811       O  0.72787435  0.73783560  0.72707906    -0.71700
O1812       O  0.72689216  0.73543438  0.61080841    -0.71900
O1813       O  0.72764459  0.69301944  0.66975251    -0.71800
O1814       O  0.72727725  0.77995970  0.66820174    -0.71800
O1815       O  0.78457761  0.80838226  0.66789098    -0.71700
O1816       O  0.78491828  0.72163387  0.66588101    -0.71800
O1817       O  0.78411380  0.76526686  0.60866633    -0.71700
O1818       O  0.78529160  0.76499827  0.72498629    -0.71900
V1819       V  0.72849771  0.73703947  0.66891209     1.35200
V1820       V  0.78361742  0.76446608  0.66687401     1.35200
C1821       C  0.75677476  0.75170665  0.74592474     0.77500
C1822       C  0.75533793  0.75067810  0.58964787     0.77600
C1823       C  0.75645136  0.69240647  0.66792489     0.77500
C1824       C  0.75596561  0.80917678  0.66781679     0.77400
C1825       C  0.78125693  0.90625733  0.65621438    -0.05700
C1826       C  0.75025037  0.90551139  0.67088451     0.00200
C1827       C  0.72112329  0.87283969  0.68418294    -0.08300
C1828       C  0.72436959  0.84235659  0.68219403    -0.05700
C1829       C  0.75553628  0.84315633  0.66802931     0.00200
C1830       C  0.78461746  0.87582507  0.65449070    -0.08300
C1831       C  0.81904504  0.87902512  0.63778310     0.62100
H1832       H  0.80320531  0.93124437  0.64600653     0.12800
H1833       H  0.70238955  0.81740131  0.69242049     0.12800
C1834       C  0.68708388  0.86989806  0.70179683     0.62400
F1835       F  0.84200988  0.91242758  0.62257966    -0.22800
F1836       F  0.81204039  0.85531392  0.60609450    -0.20100
F1837       F  0.83616462  0.87240697  0.66868151    -0.19800
F1838       F  0.66980803  0.87725950  0.67176249    -0.19900
F1839       F  0.69486900  0.89327504  0.73398937    -0.20200
F1840       F  0.66396447  0.83641043  0.71664621    -0.22900
C1841       C  0.78147751  0.62006773  0.65488329    -0.05700
C1842       C  0.75151784  0.59081982  0.67201675     0.00200
C1843       C  0.72362616  0.59534326  0.68883624    -0.08300
C1844       C  0.72658456  0.62892394  0.68674102    -0.05700
C1845       C  0.75641144  0.65817083  0.66907684     0.00200
C1846       C  0.78463466  0.65366568  0.65306411    -0.08300
C1847       C  0.81763745  0.68352406  0.63290837     0.62100
H1848       H  0.80258043  0.61625914  0.64229473     0.12800
H1849       H  0.70536916  0.63259934  0.69922845     0.12800
C1850       C  0.69119149  0.56535904  0.70978384     0.62400
F1851       F  0.83983126  0.67221765  0.61615273    -0.22800
F1852       F  0.83672749  0.70924917  0.66152521    -0.20100
F1853       F  0.80793059  0.69773751  0.60157560    -0.19800
F1854       F  0.70155316  0.55001415  0.73927646    -0.19900
F1855       F  0.67082929  0.54032238  0.68110956    -0.20200
F1856       F  0.67011792  0.57692770  0.72905395    -0.22900
C1857       C  0.96413635  0.84076163  0.64985100    -0.05700
C1858       C  0.50377650  0.84415327  0.65935362     0.00200
C1859       C  0.53427301  0.87763512  0.66608162    -0.08300
C1860       C  0.53052391  0.90788869  0.66686367    -0.05700
C1861       C  0.49773477  0.90630066  0.66156941     0.00200
C1862       C  0.96141829  0.87161591  0.64993066    -0.08300
C1863       C  0.92893896  0.87022962  0.63162812     0.62100
H1864       H  0.94279410  0.81647407  0.63781441     0.12800
H1865       H  0.55360218  0.93337986  0.67203478     0.12800
C1866       C  0.57070819  0.88198385  0.67302444     0.62400
F1867       F  0.90712214  0.83802161  0.61335884    -0.22800
F1868       F  0.93928916  0.89604292  0.60190432    -0.20100
F1869       F  0.90926219  0.87534606  0.66202521    -0.19800
F1870       F  0.58216644  0.87187738  0.63822842    -0.16300
F1871       F  0.56921332  0.86167273  0.70605403    -0.20200
F1872       F  0.59578726  0.91658740  0.68142516    -0.22900
C1873       C  0.52231146  0.61767970  0.64352052    -0.05700
C1874       C  0.49488492  0.59031738  0.66655716     0.00200
C1875       C  0.96651612  0.59491463  0.69471704    -0.08300
C1876       C  0.96860203  0.62809230  0.69229338    -0.05700
C1877       C  0.50138719  0.65805005  0.66335732     0.00200
C1878       C  0.52588889  0.65143040  0.64111919    -0.08300
C1879       C  0.55495388  0.67926477  0.61384129     0.62100
H1880       H  0.54090860  0.61227066  0.62684232     0.12800
H1881       H  0.94926726  0.63254825  0.70873775     0.12800
C1882       C  0.93888837  0.56684112  0.72302120     0.62400
F1883       F  0.57221226  0.66553116  0.59044279    -0.22800
F1884       F  0.57988059  0.70605369  0.63769059    -0.20100
F1885       F  0.54057863  0.69297881  0.58723764    -0.19800
F1886       F  0.95491253  0.55391588  0.74830933    -0.19900
F1887       F  0.91344029  0.53955491  0.70021795    -0.20200
F1888       F  0.92199437  0.58014836  0.74780723    -0.22900
C1889       C  0.77901603  0.75064503  0.85815107    -0.05700
C1890       C  0.75362154  0.75694058  0.87752598     0.00200
C1891       C  0.72871675  0.76039187  0.85402333    -0.08300
C1892       C  0.73085197  0.75864120  0.81110551    -0.05700
C1893       C  0.75680400  0.75318555  0.79132192     0.00200
C1894       C  0.78108431  0.74855698  0.81518381    -0.08300
C1895       C  0.80820059  0.74023268  0.79579975     0.62100
H1896       H  0.79725330  0.74733852  0.87711913     0.12800
H1897       H  0.71221367  0.76166901  0.79257237     0.12800
C1898       C  0.69949543  0.76487264  0.87447847     0.62400
F1899       F  0.82528908  0.73164411  0.82493766    -0.22800
F1900       F  0.83361879  0.76922067  0.77428327    -0.20100
F1901       F  0.79162931  0.71181800  0.76949516    -0.19800
F1902       F  0.71411318  0.79537146  0.89766040    -0.19900
F1903       F  0.67905221  0.73629144  0.89973530    -0.20200
F1904       F  0.67750996  0.76706315  0.84612555    -0.22900
C1905       C  0.72247747  0.47023819  0.85881166    -0.05700
C1906       C  0.75115561  0.98996586  0.88502478     0.00200
C1907       C  0.78276337  0.00625473  0.86113681    -0.08300
C1908       C  0.78034610  0.00707666  0.81834852    -0.05700
C1909       C  0.74751816  0.99286623  0.79871656     0.00200
C1910       C  0.71996104  0.46985474  0.81591969    -0.08300
C1911       C  0.68498884  0.44360215  0.79677420     0.62100
H1912       H  0.69962568  0.45261914  0.87746999     0.12800
H1913       H  0.80449363  0.01932073  0.79992921     0.12800
C1914       C  0.81887721  0.02224111  0.88065479     0.62400
F1915       F  0.65258345  0.94880816  0.83543151    -0.22800
F1916       F  0.67247643  0.93374183  0.77950907    -0.20100
F1917       F  0.67042257  0.46142017  0.77775194    -0.19800
F1918       F  0.82029872  0.99763324  0.90556778    -0.19900
F1919       F  0.81650420  0.56744758  0.89722666    -0.20200
F1920       F  0.84647920  0.55825587  0.84657758    -0.22900
C1921       C  0.84704046  0.73541777  0.02214682    -0.05700
C1922       C  0.84508881  0.76174179  0.00003142     0.00200
C1923       C  0.87543251  0.78731818  0.97793405    -0.08300
C1924       C  0.90668623  0.78540252  0.97897678    -0.05700
C1925       C  0.90856315  0.75898891  0.00094745     0.00200
C1926       C  0.87836555  0.73364686  0.02336702    -0.08300
C1927       C  0.87919461  0.70548847  0.04951824     0.62100
H1928       H  0.82366663  0.71622263  0.03891150     0.12800
H1929       H  0.93008429  0.80456792  0.96222045     0.12800
C1930       C  0.87498753  0.81606930  0.95254014     0.62400
F1931       F  0.84857469  0.68718248  0.07320563    -0.22800
F1932       F  0.90744468  0.72094103  0.07577369    -0.20100
F1933       F  0.88243182  0.68137041  0.02466311    -0.19800
F1934       F  0.87155162  0.83969824  0.97809269    -0.19900
F1935       F  0.84707986  0.80130365  0.92579617    -0.20200
F1936       F  0.90587637  0.83481412  0.92942158    -0.22900
C1937       C  0.65912122  0.78921554  0.98911630    -0.05700
C1938       C  0.65782611  0.75744573  0.99963664     0.00200
C1939       C  0.62461935  0.72768680  0.01027220    -0.08300
C1940       C  0.59403096  0.73074219  0.00839095    -0.05700
C1941       C  0.59526941  0.76241760  0.99755291     0.00200
C1942       C  0.62865791  0.79259902  0.98846676    -0.08300
C1943       C  0.63274059  0.82835049  0.97812862     0.62100
H1944       H  0.68457924  0.81181882  0.98138695     0.12800
H1945       H  0.56856683  0.70805741  0.01590082     0.12800
C1946       C  0.62101088  0.69300550  0.02460731     0.62400
F1947       F  0.66754182  0.85329793  0.96886254    -0.22800
F1948       F  0.62187413  0.84079977  0.01137404    -0.20100
F1949       F  0.61275911  0.82537717  0.94442838    -0.19800
F1950       F  0.64284381  0.69902467  0.05743971    -0.19900
F1951       F  0.62999371  0.67749205  0.99288283    -0.20200
F1952       F  0.58673599  0.66921178  0.03738285    -0.22900
C1953       C  0.00396030  0.78503686  0.80676764    -0.05700
C1954       C  0.99757269  0.75354646  0.78796481     0.00200
C1955       C  0.49361645  0.72470729  0.80764848    -0.08300
C1956       C  0.49426844  0.72812487  0.85048123    -0.05700
C1957       C  0.50613320  0.76097845  0.86994136     0.00200
C1958       C  0.00533358  0.78890923  0.84969552    -0.08300
C1959       C  0.01054439  0.82325075  0.86815530     0.62100
H1960       H  0.00740588  0.80648079  0.78737006     0.12800
H1961       H  0.48512845  0.70472604  0.86909722     0.12800
C1962       C  0.48070214  0.68871300  0.78817148     0.62400
F1963       F  0.01070083  0.84582650  0.83860443    -0.22800
F1964       F  0.04263180  0.84055624  0.88771682    -0.20100
F1965       F  0.98324996  0.81633754  0.89582407    -0.19800
F1966       F  0.50663164  0.68989136  0.76180294    -0.19900
F1967       F  0.45033995  0.67918252  0.76650692    -0.20200
F1968       F  0.47288829  0.66279753  0.81713591    -0.22900
C1969       C  0.87247966  0.51944320  0.01836585    -0.05700
C1970       C  0.83952124  0.98488407  0.00731258     0.00200
C1971       C  0.84322033  0.95672887  0.99037391    -0.08300
C1972       C  0.87674430  0.95941340  0.99057593    -0.05700
C1973       C  0.90643233  0.98890729  0.00674531     0.00200
C1974       C  0.90621895  0.52254456  0.01937339    -0.08300
C1975       C  0.93634648  0.55481313  0.03929970     0.62100
H1976       H  0.86877290  0.54049359  0.03077184     0.12800
H1977       H  0.88007912  0.93823184  0.97784205     0.12800
C1978       C  0.81249358  0.92403863  0.97174849     0.62400
F1979       F  0.92470961  0.57568511  0.05864799    -0.22800
F1980       F  0.96145292  0.57527253  0.00989152    -0.20100
F1981       F  0.95181778  0.54440699  0.06852378    -0.19800
F1982       F  0.79672925  0.93363289  0.94207139    -0.19900
F1983       F  0.78777949  0.90472226  0.00205033    -0.20200
F1984       F  0.82339104  0.90223337  0.95328397    -0.22900
C1985       C  0.62587504  0.95658202  0.99921047    -0.05700
C1986       C  0.65665578  0.98920839  0.00566515     0.00200
C1987       C  0.65076208  0.51123224  0.03137679    -0.08300
C1988       C  0.61894790  0.51186601  0.02799891    -0.05700
C1989       C  0.58915790  0.98402400  0.00192610     0.00200
C1990       C  0.59209381  0.95314197  0.99758918    -0.08300
C1991       C  0.56029928  0.91655283  0.99129332     0.62100
H1992       H  0.62840422  0.93329773  0.99539595     0.12800
H1993       H  0.61270984  0.52719702  0.04947220     0.12800
C1994       C  0.67448778  0.52922623  0.06743739     0.62400
F1995       F  0.54440189  0.42205327  0.95622241    -0.22800
F1996       F  0.58863333  0.43281371  0.91193557    -0.20100
F1997       F  0.54254941  0.91631381  0.95664324    -0.19800
F1998       F  0.70677560  0.55660988  0.05400939    -0.19900
F1999       F  0.70248928  0.05494680  0.05366994    -0.20200
F2000       F  0.67531425  0.08143351  0.02617650    -0.22900
C2001       C  0.02671736  0.51847520  0.85168579    -0.05700
C2002       C  0.50167499  0.49815229  0.87714750     0.00200
C2003       C  0.51353672  0.97279295  0.85073150    -0.08300
C2004       C  0.51294565  0.97660449  0.80798656    -0.05700
C2005       C  0.50127217  0.50040292  0.79044450     0.00200
C2006       C  0.02653105  0.52069924  0.80873567    -0.08300
C2007       C  0.05865077  0.55042887  0.78692102     0.62100
H2008       H  0.05002652  0.53681384  0.86824366     0.12800
H2009       H  0.52583725  0.96649868  0.78758380     0.12800
C2010       C  0.53247679  0.95482477  0.86830159     0.62400
F2011       F  0.99353852  0.07322755  0.83270446    -0.22800
F2012       F  0.96267236  0.04022004  0.77956150    -0.20100
F2013       F  0.07594626  0.53680799  0.76349080    -0.19800
F2014       F  0.50819823  0.92432530  0.88842750    -0.19900
F2015       F  0.42544760  0.45289904  0.90482119    -0.20200
F2016       F  0.40974567  0.47814426  0.85648188    -0.22900
C2017       C  0.77992674  0.76183305  0.47483098    -0.05700
C2018       C  0.74676748  0.75049364  0.45775721     0.00200
C2019       C  0.71669956  0.73989574  0.48372518    -0.08300
C2020       C  0.72092168  0.74016012  0.52634828    -0.05700
C2021       C  0.75421152  0.75158989  0.54391676     0.00200
C2022       C  0.78460664  0.76355604  0.51746776    -0.08300
C2023       C  0.82200278  0.77865415  0.53324784     0.62100
H2024       H  0.80250543  0.77020855  0.45410236     0.12800
H2025       H  0.69794103  0.73172035  0.54636972     0.12800
C2026       C  0.68019580  0.72755644  0.46659917     0.62400
F2027       F  0.84691471  0.78784999  0.50172175    -0.22800
F2028       F  0.82423254  0.75405324  0.55723986    -0.20100
F2029       F  0.83091762  0.80876068  0.55589545    -0.19800
F2030       F  0.67173271  0.70024044  0.43922076    -0.19900
F2031       F  0.67983105  0.75517038  0.44677726    -0.20200
F2032       F  0.65414756  0.71557043  0.49709750    -0.22900
C2033       C  0.74941768  0.78284480  0.19229627    -0.05700
C2034       C  0.74590101  0.75244964  0.21105416     0.00200
C2035       C  0.74335906  0.72448733  0.18615093    -0.08300
C2036       C  0.74463754  0.72823210  0.14332116    -0.05700
C2037       C  0.74883205  0.75888350  0.12436998     0.00200
C2038       C  0.75130676  0.78687035  0.14935610    -0.08300
C2039       C  0.75553980  0.82072722  0.13134189     0.62100
H2040       H  0.75145099  0.80394833  0.21180329     0.12800
H2041       H  0.74302854  0.70714961  0.12411837     0.12800
C2042       C  0.73888075  0.69054126  0.20426700     0.62400
F2043       F  0.75431691  0.84282941  0.16127626    -0.22800
F2044       F  0.72853611  0.81293321  0.10442874    -0.20100
F2045       F  0.78792447  0.83893046  0.11098318    -0.19800
F2046       F  0.71103529  0.67676206  0.23251736    -0.19900
F2047       F  0.76972523  0.69725764  0.22315305    -0.20200
F2048       F  0.73167847  0.66509357  0.17458569    -0.22900
C2049       C  0.72648489  0.50288486  0.48038529    -0.05700
C2050       C  0.75276384  0.00240071  0.46541350     0.00200
C2051       C  0.74841568  0.02763753  0.48924316    -0.08300
C2052       C  0.74908617  0.02610088  0.53224592    -0.05700
C2053       C  0.75476675  0.00116090  0.55189957     0.00200
C2054       C  0.72525691  0.50354651  0.52342466    -0.08300
C2055       C  0.69519495  0.50604970  0.54497644     0.62100
H2056       H  0.70522084  0.50248038  0.46338329     0.12800
H2057       H  0.74504567  0.04440212  0.55113538     0.12800
C2058       C  0.74368816  0.05656430  0.47007099     0.62400
F2059       F  0.67561113  0.51317615  0.51778551    -0.22800
F2060       F  0.70871210  0.53298557  0.57355512    -0.20100
F2061       F  0.67246397  0.47446699  0.56426199    -0.19800
F2062       F  0.71125521  0.04192918  0.45130245    -0.19900
F2063       F  0.77064821  0.07513311  0.44161814    -0.20200
F2064       F  0.74467786  0.08046937  0.49897293    -0.22900
C2065       C  0.73968901  0.96310972  0.19997754    -0.05700
C2066       C  0.74565227  0.99475725  0.21830234     0.00200
C2067       C  0.73794967  0.51586409  0.18710871    -0.08300
C2068       C  0.74040395  0.51374846  0.14430198    -0.05700
C2069       C  0.74345201  0.98697650  0.13185320     0.00200
C2070       C  0.73764213  0.95821923  0.15721379    -0.08300
C2071       C  0.72938206  0.92255216  0.13987479     0.62100
H2072       H  0.73607162  0.94172006  0.21986722     0.12800
H2073       H  0.73664817  0.53170773  0.12505630     0.12800
C2074       C  0.72807465  0.54212782  0.20523966     0.62400
F2075       F  0.72557285  0.89901366  0.17031902    -0.22800
F2076       F  0.75651398  0.92641688  0.11362008    -0.20100
F2077       F  0.69789189  0.90791983  0.11903477    -0.19800
F2078       F  0.75456190  0.56555962  0.23053087    -0.19900
F2079       F  0.69648397  0.52429037  0.22726764    -0.20200
F2080       F  0.72343653  0.56159550  0.17528666    -0.22900
C2081       C  0.52893303  0.74720691  0.51570233    -0.05700
C2082       C  0.99064557  0.74236192  0.54198494     0.00200
C2083       C  0.96686844  0.74827488  0.51895300    -0.08300
C2084       C  0.96941033  0.74803956  0.47590714    -0.05700
C2085       C  0.50205480  0.74429721  0.45029574     0.00200
C2086       C  0.53053248  0.74614178  0.47256948    -0.08300
C2087       C  0.56279463  0.74777776  0.45128082     0.62100
H2088       H  0.55074816  0.74931409  0.53312337     0.12800
H2089       H  0.95163475  0.75289922  0.45804424     0.12800
C2090       C  0.93974354  0.75608806  0.53940100     0.62400
F2091       F  0.58848978  0.75243632  0.47881603    -0.22800
F2092       F  0.57777864  0.77569631  0.42397239    -0.20100
F2093       F  0.55293047  0.71660758  0.43047199    -0.19800
F2094       F  0.95646680  0.78428367  0.56593890    -0.19900
F2095       F  0.91479764  0.72677778  0.56088284    -0.20200
F2096       F  0.92196685  0.76464195  0.51115714    -0.22900
C2097       C  0.84303499  0.61756336  0.35461397    -0.05700
C2098       C  0.84022257  0.59036697  0.32885829     0.00200
C2099       C  0.86905505  0.59668301  0.30228166    -0.08300
C2100       C  0.90018588  0.62980567  0.30351942    -0.05700
C2101       C  0.90321402  0.65694247  0.32957382     0.00200
C2102       C  0.87413674  0.65075451  0.35577492    -0.08300
C2103       C  0.87625808  0.67829398  0.38619486     0.62100
H2104       H  0.82069148  0.61229923  0.37456260     0.12800
H2105       H  0.92265140  0.63470460  0.28409032     0.12800
C2106       C  0.86686484  0.56903021  0.27201007     0.62400
F2107       F  0.84681025  0.66506884  0.41217900    -0.22800
F2108       F  0.87837121  0.70671061  0.36544840    -0.20100
F2109       F  0.90578102  0.68957471  0.41011358    -0.19800
F2110       F  0.83640155  0.55637917  0.24944477    -0.19900
F2111       F  0.86646932  0.54147772  0.29287688    -0.20200
F2112       F  0.89547664  0.58265647  0.24474946    -0.22900
C2113       C  0.59143167  0.87115464  0.33878870    -0.05700
C2114       C  0.59325036  0.84042739  0.33009682     0.00200
C2115       C  0.62724828  0.84349442  0.32481761    -0.08300
C2116       C  0.65763247  0.87681061  0.32989523    -0.05700
C2117       C  0.65581984  0.90747431  0.33897772     0.00200
C2118       C  0.62183488  0.90462398  0.34291518    -0.08300
C2119       C  0.61701507  0.93632098  0.35143574     0.62100
H2120       H  0.56558281  0.86882985  0.34240530     0.12800
H2121       H  0.68348575  0.87914360  0.32624559     0.12800
C2122       C  0.63213037  0.81230306  0.31324952     0.62400
F2123       F  0.58167363  0.92693604  0.35584322    -0.22800
F2124       F  0.63115064  0.95992857  0.31916710    -0.20100
F2125       F  0.63357474  0.95258533  0.38737188    -0.19800
F2126       F  0.61455632  0.79716531  0.27740373    -0.19900
F2127       F  0.61915503  0.78761210  0.34447027    -0.20200
F2128       F  0.66741233  0.82217410  0.30662340    -0.22900
C2129       C  0.99713639  0.72893456  0.13989299    -0.05700
C2130       C  0.49655756  0.75768924  0.11764953     0.00200
C2131       C  0.49840267  0.78521247  0.14304071    -0.08300
C2132       C  0.49817004  0.78148198  0.18590951    -0.05700
C2133       C  0.49619963  0.75153206  0.20405500     0.00200
C2134       C  0.99613486  0.72486389  0.18257569    -0.08300
C2135       C  0.99061664  0.69032739  0.20001506     0.62100
H2136       H  0.99510296  0.70786695  0.12032552     0.12800
H2137       H  0.50037887  0.80248509  0.20574473     0.12800
C2138       C  0.50011845  0.81816899  0.12555674     0.62400
F2139       F  0.98255958  0.66499951  0.16994655    -0.22800
F2140       F  0.96280856  0.67705830  0.22823714    -0.20100
F2141       F  0.02112828  0.69581549  0.21868970    -0.19800
F2142       F  0.47266286  0.80881356  0.09878952    -0.19900
F2143       F  0.53218525  0.83832482  0.10517186    -0.20200
F2144       F  0.49712937  0.83898973  0.15591273    -0.22900
C2145       C  0.50120782  0.48110325  0.47683252    -0.05700
C2146       C  0.49287673  0.00609194  0.45718140     0.00200
C2147       C  0.96072602  0.99708318  0.48618594    -0.08300
C2148       C  0.96288668  0.99642726  0.52910429    -0.05700
C2149       C  0.48426433  0.49191076  0.54434511     0.00200
C2150       C  0.50210727  0.47869211  0.51956494    -0.08300
C2151       C  0.52147801  0.46139722  0.53803788     0.62100
H2152       H  0.51580452  0.47195542  0.45796643     0.12800
H2153       H  0.94033459  0.99211136  0.54806749     0.12800
C2154       C  0.92695620  0.99211749  0.46739960     0.62400
F2155       F  0.53111182  0.44446655  0.50862554    -0.22800
F2156       F  0.56488338  0.00152050  0.55821022    -0.20100
F2157       F  0.55192461  0.48659994  0.55661528    -0.19800
F2158       F  0.91415461  0.96429741  0.44010545    -0.19900
F2159       F  0.92273438  0.43295290  0.42838976    -0.20200
F2160       F  0.90067525  0.98486974  0.49672701    -0.22900
C2161       C  0.86494568  0.84654907  0.31065528    -0.05700
C2162       C  0.83681550  0.84264677  0.33626137     0.00200
C2163       C  0.84187640  0.87063994  0.36283647    -0.08300
C2164       C  0.87460369  0.90217808  0.36143515    -0.05700
C2165       C  0.90267665  0.90613911  0.33580915     0.00200
C2166       C  0.89795263  0.87790392  0.30989465    -0.08300
C2167       C  0.92706090  0.88120814  0.28050128     0.62100
H2168       H  0.86070471  0.82479354  0.29085505     0.12800
H2169       H  0.87866050  0.92406812  0.38080958     0.12800
C2170       C  0.81354117  0.86698646  0.39373874     0.62400
F2171       F  0.91532658  0.85249069  0.25448801    -0.22800
F2172       F  0.95494365  0.88342326  0.30229517    -0.20100
F2173       F  0.93891038  0.91109014  0.25661756    -0.19800
F2174       F  0.80170577  0.83640954  0.41634918    -0.19900
F2175       F  0.78545295  0.86593508  0.37360451    -0.20200
F2176       F  0.82629009  0.89497608  0.42094757    -0.22900
C2177       C  0.61481281  0.59377307  0.34046525    -0.05700
C2178       C  0.58345200  0.59567777  0.33989882     0.00200
C2179       C  0.58630080  0.62958785  0.34019941    -0.08300
C2180       C  0.62032054  0.65977670  0.33876490    -0.05700
C2181       C  0.65168912  0.65779793  0.33813242     0.00200
C2182       C  0.64877384  0.62391185  0.34016689    -0.08300
C2183       C  0.68087719  0.61884374  0.34236920     0.62100
H2184       H  0.61262335  0.56802198  0.34100359     0.12800
H2185       H  0.62256957  0.68555673  0.33808891     0.12800
C2186       C  0.55407015  0.63455953  0.34234465     0.62400
F2187       F  0.67141888  0.58367713  0.34601432    -0.22800
F2188       F  0.70051678  0.63623201  0.37628059    -0.20100
F2189       F  0.70154601  0.63169504  0.30708756    -0.19800
F2190       F  0.53376719  0.61804404  0.37696829    -0.19900
F2191       F  0.53408221  0.62063885  0.30769624    -0.20200
F2192       F  0.56337595  0.66978913  0.34459888    -0.22900
C2193       C  0.00115718  0.96989199  0.19613259    -0.05700
C2194       C  0.49855603  0.50416451  0.21032086     0.00200
C2195       C  0.49976410  0.53092982  0.18496172    -0.08300
C2196       C  0.50178609  0.52759084  0.14215552    -0.05700
C2197       C  0.50194744  0.49835295  0.12382548     0.00200
C2198       C  0.00150043  0.96566835  0.15328576    -0.08300
C2199       C  0.00559907  0.93552536  0.13565130     0.62100
H2200       H  0.00258740  0.95091379  0.21587444     0.12800
H2201       H  0.50257104  0.54773934  0.12243701     0.12800
C2202       C  0.49958131  0.56320467  0.20257484     0.62400
F2203       F  0.01245141  0.91772302  0.16569729    -0.22800
F2204       F  0.52704341  0.94303197  0.10484796    -0.20100
F2205       F  0.97477642  0.91151158  0.11666872    -0.19800
F2206       F  0.52643317  0.57973613  0.23045844    -0.19900
F2207       F  0.97028950  0.55198603  0.21993511    -0.20200
F2208       F  0.50478203  0.58752328  0.17249175    -0.22900
loop_ 
_geom_bond_atom_site_label_1 
_geom_bond_atom_site_label_2 
_geom_bond_distance 
_geom_bond_site_symmetry_2 
_ccdc_geom_bond_type 
O1           C11   1.262       .  A
O1         V1113   1.895       .  S
O2           C12   1.266       .  A
O2          V561   1.899   1_545  S
O3           C13   1.264   1_455  A
O3            V9   1.901       .  S
O4          C566   1.266   1_455  A
O4            V9   1.901       .  S
O5         C1118   1.265   1_545  A
O5           V10   1.903       .  S
O6         C1669   1.264       .  A
O6           V10   1.905       .  S
O7           C12   1.264       .  A
O7         V1114   1.903   1_455  S
O8           C11   1.267       .  A
O8          V562   1.905       .  S
V9         O1105   1.895   1_455  S
V9          O554   1.899       .  S
V9         V1666   2.082   1_455  T
V10        O1111   1.903       .  S
V10         O560   1.900   1_545  S
V10        V1665   2.083   1_545  T
C11         C509   1.498       .  S
C12         C522   1.500       .  S
C13        O1662   1.264       .  A
C13         C490   1.476       .  S
C14         O556   1.266   1_655  A
C14        O1109   1.264   1_565  A
C14         C538   1.491       .  S
O15          C25   1.266       .  A
O15          V23   1.908       .  S
O16          C26   1.266       .  A
O16        V1127   1.907       .  S
O17          C27   1.262       .  A
O17          V23   1.895       .  S
O18          C28   1.261       .  A
O18          V23   1.894       .  S
O19        C1132   1.265       .  A
O19          V24   1.895       .  S
O20        C1131   1.265       .  A
O20          V24   1.899       .  S
O21          C26   1.265       .  A
O21          V24   1.906       .  S
O22          C25   1.265       .  A
O22        V1128   1.902   1_455  S
V23        O1120   1.907   1_455  S
V23        V1128   2.082   1_455  T
V24        O1126   1.905       .  S
V24        V1127   2.082       .  T
C25         C458   1.491       .  S
C26         C445   1.496       .  S
C27        O1124   1.266   1_455  A
C27         C477   1.484       .  S
C28        O1123   1.266   1_455  A
C28         C429   1.493       .  S
O29          C39   1.267       .  A
O29          V37   1.906       .  S
O30          C40   1.265       .  A
O30         V589   1.907       .  S
O31          C41   1.261   1_545  A
O31          V37   1.891       .  S
O32          C42   1.261   1_545  A
O32          V37   1.890       .  S
O33         C594   1.266       .  A
O33          V38   1.898       .  S
O34         C593   1.264       .  A
O34          V38   1.902       .  S
O35          C40   1.265       .  A
O35          V38   1.903       .  S
O36          C39   1.265       .  A
O36         V590   1.908   1_545  S
V37         O582   1.905   1_545  S
V37         V590   2.082   1_545  T
V38         O588   1.900       .  S
V38         V589   2.084       .  T
C39         C442   1.496       .  S
C40         C461   1.490       .  S
C41         O586   1.267       .  A
C41         C946   1.494   1_565  S
C42         O585   1.266       .  A
C42         C962   1.482       .  S
O43          C53   1.266       .  A
O43          V51   1.908       .  S
O44          C54   1.269       .  A
O44          V51   1.906       .  S
O45          C55   1.262       .  A
O45          V51   1.895       .  S
O46          C56   1.261       .  A
O46          V51   1.893       .  S
O47          C56   1.266       .  A
O47          V52   1.905       .  S
O48          C55   1.265       .  A
O48          V52   1.903       .  S
O49          C54   1.261       .  A
O49          V52   1.893       .  S
O50          C53   1.265       .  A
O50          V52   1.893       .  S
V51          V52   2.082       .  T
C53         C525   1.500       .  S
C54         C506   1.499       .  S
C55         C362   1.479       .  S
C56         C378   1.481       .  S
O57         C619   1.261   1_545  A
O57        V1169   1.890   1_554  S
O58         C620   1.265   1_545  A
O58          V65   1.892       .  S
O59          C69   1.264   1_445  A
O59          V65   1.895   1_556  S
O60          C70   1.264   1_445  A
O60          V65   1.897       .  S
O61        C1726   1.265       .  A
O61          V66   1.904       .  S
O62        C1725   1.265       .  A
O62          V66   1.903   1_556  S
O63          C68   1.263       .  A
O63        V1170   1.899   1_455  S
O64          C67   1.264       .  A
O64          V66   1.890       .  S
V65        O1161   1.892   1_455  S
V65        V1722   2.083   1_445  T
V66        O1167   1.897   1_554  S
V66        V1721   2.085   1_554  T
C67         O609   1.265       .  A
C67         C317   1.489       .  S
C68         O610   1.264       .  A
C68         C333   1.472       .  S
C69        O1718   1.265       .  A
C69         C346   1.488       .  S
C70        O1717   1.265       .  A
C70         C541   1.489       .  S
O71          C81   1.263       .  A
O71          V79   1.900       .  S
O72          C82   1.263       .  A
O72          V79   1.900   1_554  S
O73          C83   1.262       .  A
O73          V79   1.896       .  S
O74          C84   1.264       .  A
O74        V1183   1.891       .  S
O75          C84   1.262       .  A
O75          V80   1.896       .  S
O76          C83   1.265       .  A
O76        V1184   1.897   1_455  S
O77        C1186   1.264       .  A
O77          V80   1.893   1_554  S
O78        C1185   1.264       .  A
O78          V80   1.891       .  S
V79        O1178   1.893   1_455  S
V79        V1184   2.082   1_455  T
V80        O1180   1.894       .  S
V80        V1183   2.081       .  T
C81        O1182   1.265   1_455  A
C81         C301   1.492       .  S
C82        O1181   1.265   1_455  A
C82         C474   1.492       .  S
C83         C285   1.487       .  S
C84         C269   1.486       .  S
O85          C95   1.263       .  A
O85          V93   1.897       .  S
O86          C96   1.264   1_556  A
O86          V93   1.900   1_556  S
O87          C97   1.265       .  A
O87          V93   1.897   1_556  S
O88          C98   1.263       .  A
O88          V93   1.898       .  S
O89         C650   1.264   1_545  A
O89          V94   1.889       .  S
O90         C649   1.260   1_545  A
O90          V94   1.890   1_556  S
O91         C648   1.263   1_545  A
O91          V94   1.897       .  S
O92         C647   1.265   1_545  A
O92          V94   1.894       .  S
V93         V646   2.085       .  T
V94         V645   2.083   1_545  T
C95         O644   1.265       .  A
C95         C314   1.490       .  S
C96         O643   1.263       .  A
C96         C330   1.473       .  S
C97         O642   1.263       .  A
C97         C250   1.484       .  S
C98         O641   1.264       .  A
C98         C413   1.480       .  S
O99         C109   1.261       .  A
O99         V107   1.893       .  S
O100        C110   1.264       .  A
O100        V107   1.892       .  S
O101        C111   1.264       .  A
O101        V107   1.900   1_554  S
O102        C112   1.264       .  A
O102        V107   1.903       .  S
O103        C112   1.265       .  A
O103        V108   1.896       .  S
O104        C111   1.265       .  A
O104        V108   1.897   1_554  S
O105        C110   1.261       .  A
O105        V108   1.893       .  S
O106        C109   1.265       .  A
O106        V108   1.895       .  S
V107        V108   2.082       .  T
C109        C266   1.486       .  S
C110        C282   1.481       .  S
C111        C381   1.493       .  S
C112        C234   1.496       .  S
O113        C123   1.267   1_455  A
O113        V673   1.901       .  S
O114        C124   1.266   1_455  A
O114        V121   1.906       .  S
O115        C125   1.262   1_445  A
O115        V121   1.895       .  S
O116        C126   1.261   1_445  A
O116        V121   1.891       .  S
O117       C1782   1.265       .  A
O117        V122   1.905       .  S
O118       C1781   1.267       .  A
O118        V122   1.904       .  S
O119       C1228   1.263       .  A
O119        V674   1.897   1_545  S
O120       C1227   1.263       .  A
O120        V122   1.901       .  S
V121        O665   1.904   1_545  S
V121       V1778   2.084   1_445  T
V122        O671   1.898       .  S
V122       V1777   2.082       .  T
C123       O1224   1.264       .  A
C123        C205   1.498       .  S
C124       O1223   1.264       .  A
C124        C218   1.490       .  S
C125       O1774   1.265       .  A
C125        C349   1.471       .  S
C126       O1773   1.267       .  A
C126        C493   1.491   1_565  S
O127       C1241   1.267       .  A
O127        V135   1.903       .  S
O128       C1242   1.267       .  A
O128        V135   1.902       .  S
O129        C139   1.262       .  A
O129        V135   1.894       .  S
O130        C140   1.262       .  A
O130        V135   1.897       .  S
O131       C1244   1.264   1_455  A
O131        V136   1.898       .  S
O132       C1243   1.264   1_455  A
O132        V136   1.895       .  S
O133        C138   1.264   1_455  A
O133        V136   1.906       .  S
O134        C137   1.265   1_455  A
O134        V136   1.903       .  S
V135       V1240   2.083       .  T
V136       V1239   2.084   1_455  T
C137       O1231   1.267       .  A
C137        C202   1.498       .  S
C138       O1232   1.267       .  A
C138        C221   1.490       .  S
C139       O1236   1.264       .  A
C139        C298   1.474       .  S
C140       O1235   1.264       .  A
C140        C426   1.479       .  S
O141        C703   1.267   1_545  A
O141        V149   1.901       .  S
O142        C704   1.264       .  A
O142        V149   1.901       .  S
O143        C153   1.265       .  A
O143        V149   1.898       .  S
O144        C154   1.267       .  A
O144        V701   1.905       .  S
O145        C154   1.262       .  A
O145        V150   1.893       .  S
O146        C153   1.265       .  A
O146        V702   1.905   1_545  S
O147        C152   1.261       .  A
O147        V150   1.892       .  S
O148        C151   1.261       .  A
O148        V150   1.890       .  S
V149        O696   1.892   1_545  S
V149        V702   2.083   1_545  T
V150        O698   1.896       .  S
V150        V701   2.083       .  T
C151        O693   1.266       .  A
C151        C253   1.483       .  S
C152        O694   1.266       .  A
C152        C397   1.488       .  S
C153        C186   1.492       .  S
C154        C170   1.493       .  S
O155        C165   1.262       .  A
O155        V163   1.894       .  S
O156        C166   1.265       .  A
O156        V163   1.896       .  S
O157        C167   1.266       .  A
O157        V163   1.901       .  S
O158        C168   1.266       .  A
O158        V163   1.899       .  S
O159        C168   1.263       .  A
O159        V164   1.900       .  S
O160        C167   1.264       .  A
O160        V164   1.904       .  S
O161        C166   1.265       .  A
O161        V164   1.906       .  S
O162        C165   1.265       .  A
O162        V164   1.904       .  S
V163        V164   2.083       .  T
C165        C237   1.472       .  S
C166        C365   1.499       .  S
C167        C189   1.495       .  S
C168        C173   1.491       .  S
C169        C170   1.407       .  A
C169        C174   1.409       .  A
C169        H176   1.083       .  S
C170        C171   1.424       .  A
C171        C172   1.406       .  A
C171        C178   1.522       .  S
C172        C173   1.404       .  A
C172        H177   1.082       .  S
C173        C174   1.422       .  A
C174        C175   1.521       .  S
C175        F179   1.385       .  S
C175        F180   1.382       .  S
C175        F181   1.383       .  S
C178        F182   1.383       .  S
C178        F183   1.384       .  S
C178        F184   1.385       .  S
C185        C186   1.406       .  A
C185        C190   1.408       .  A
C185        H192   1.083       .  S
C186        C187   1.421       .  A
C187        C188   1.409       .  A
C187        C194   1.520       .  S
C188        C189   1.407       .  A
C188        H193   1.083       .  S
C189        C190   1.422       .  A
C190        C191   1.520       .  S
C191        F195   1.385       .  S
C191        F196   1.383       .  S
C191        F197   1.381       .  S
C194        F198   1.384       .  S
C194        F199   1.383       .  S
C194        F200   1.385       .  S
C201        C206   1.410       .  A
C201       C1306   1.408       .  A
C201        H208   1.082       .  S
C202        C203   1.423   1_655  A
C202       C1305   1.408       .  A
C203        C204   1.408       .  A
C203        C210   1.522       .  S
C204        C205   1.406   1_455  A
C204        H209   1.082       .  S
C205       C1310   1.424       .  A
C206       C1309   1.423       .  A
C206        C207   1.522       .  S
C207        F211   1.385       .  S
C207        F212   1.383       .  S
C207        F213   1.383       .  S
C210        F214   1.383       .  S
C210        F215   1.383       .  S
C210        F216   1.385       .  S
C217        C218   1.405   1_455  A
C217        C222   1.411       .  A
C217        H224   1.083       .  S
C218       C1323   1.422       .  A
C219        C220   1.408       .  A
C219       C1322   1.424       .  A
C219        C226   1.522       .  S
C220       C1325   1.405       .  A
C220        H225   1.082       .  S
C221        C222   1.422   1_655  A
C221       C1324   1.403       .  A
C222        C223   1.520       .  S
C223        F227   1.385       .  S
C223        F228   1.382       .  S
C223        F229   1.382       .  S
C226        F230   1.383       .  S
C226        F231   1.384       .  S
C226        F232   1.385       .  S
C233        C234   1.411       .  A
C233        C238   1.405       .  A
C233        H240   1.082       .  S
C234        C235   1.428       .  A
C235        C236   1.410       .  A
C235        C242   1.522       .  S
C236        C237   1.399       .  A
C236        H241   1.081       .  S
C237        C238   1.410       .  A
C238        C239   1.520       .  S
C239        F243   1.384       .  S
C239        F244   1.383       .  S
C239        F245   1.383       .  S
C242        F246   1.383       .  S
C242        F247   1.384       .  S
C242        F248   1.385       .  S
C249        C254   1.407       .  A
C249        C802   1.399       .  A
C249        H256   1.083       .  S
C250        C251   1.421       .  A
C250        C801   1.404       .  A
C251        C252   1.407       .  A
C251        C258   1.520       .  S
C252        C253   1.404       .  A
C252        H257   1.083       .  S
C253        C806   1.421       .  A
C254        C805   1.427       .  A
C254        C255   1.522       .  S
C255        F261   1.383       .  S
C255        F811   1.385       .  S
C255        F812   1.383       .  S
C258        F262   1.384       .  S
C258        F815   1.382       .  S
C258        F816   1.385       .  S
F259        C807   1.385       .  S
F260        C807   1.384       .  S
F263        C810   1.382       .  S
F264        C810   1.385       .  S
C265        C266   1.406   1_554  A
C265        C270   1.405       .  A
C265        H272   1.082       .  S
C266        C267   1.422       .  A
C267        C268   1.404       .  A
C267        C274   1.523       .  S
C268        C269   1.406       .  A
C268        H273   1.082       .  S
C269        C270   1.421   1_556  A
C270        C271   1.522       .  S
C271        F275   1.385       .  S
C271        F276   1.384       .  S
C271        F277   1.383   1_554  S
C274        F278   1.383   1_556  S
C274        F279   1.383       .  S
C274        F280   1.385       .  S
C281        C282   1.403       .  A
C281        C286   1.403       .  A
C281        H288   1.083       .  S
C282        C283   1.420   1_556  A
C283        C284   1.405       .  A
C283        C290   1.521       .  S
C284        C285   1.406   1_554  A
C284        H289   1.082       .  S
C285        C286   1.422       .  A
C286        C287   1.518       .  S
C287        F291   1.385       .  S
C287        F292   1.382       .  S
C287        F293   1.379       .  S
C290        F294   1.384       .  S
C290        F295   1.383   1_554  S
C290        F296   1.385       .  S
C297        C298   1.400       .  A
C297        C302   1.408       .  A
C297        H304   1.083       .  S
C298       C1403   1.412       .  A
C299        C300   1.404       .  A
C299       C1402   1.414       .  A
C299        C306   1.522       .  S
C300        C301   1.410   1_655  A
C300        H305   1.082       .  S
C301       C1406   1.426       .  A
C302       C1405   1.426       .  A
C302        C303   1.520       .  S
C303        F307   1.385       .  S
C303        F308   1.379       .  S
C303        F309   1.383       .  S
C306        F310   1.382       .  S
C306        F311   1.383       .  S
C306        F312   1.384       .  S
C313        C318   1.402       .  A
C313        C866   1.403   1_545  A
C313        H320   1.083       .  S
C314        C315   1.422   1_554  A
C314        C865   1.408       .  A
C315        C316   1.405       .  A
C315        C322   1.523       .  S
C316        C317   1.406   1_556  A
C316        H321   1.082       .  S
C317        C870   1.420       .  A
C318        C869   1.420   1_545  A
C318        C319   1.521       .  S
C319        F323   1.385       .  S
C319        F324   1.383       .  S
C319        F325   1.382       .  S
C322        F326   1.384       .  S
C322        F327   1.383   1_556  S
C322        F328   1.385       .  S
C329        C330   1.402   1_556  A
C329        C334   1.407       .  A
C329        H336   1.084       .  S
C330        C883   1.416       .  A
C331        C332   1.405       .  A
C331        C882   1.422   1_545  A
C331        C338   1.523       .  S
C332        C885   1.408   1_545  A
C332        H337   1.082       .  S
C333        C334   1.415       .  A
C333        C884   1.402   1_556  A
C334        C335   1.517       .  S
C335        F341   1.383       .  S
C335        F891   1.382       .  S
C335        F892   1.385       .  S
C338        F342   1.384   1_554  S
C338        F895   1.383       .  S
C338        F896   1.385       .  S
F339        C887   1.383   1_554  S
F340        C887   1.385       .  S
F343        C890   1.383       .  S
F344        C890   1.385       .  S
C345        C350   1.408       .  A
C345       C1450   1.403   1_545  A
C345        H352   1.084       .  S
C346       C1449   1.409   1_565  A
C346        C899   1.422       .  A
C347        C348   1.409       .  A
C347        C898   1.420       .  A
C347        C354   1.520       .  S
C348        C901   1.406       .  A
C348        H353   1.082       .  S
C349        C900   1.400       .  A
C349       C1454   1.410   1_565  A
C350       C1453   1.416   1_545  A
C350        C351   1.519       .  S
C351        F357   1.384       .  S
C351        F907   1.385       .  S
C351        F908   1.382       .  S
C354        F358   1.383       .  S
C354        F911   1.382       .  S
C354        F912   1.385       .  S
F355        C903   1.385       .  S
F356        C903   1.383       .  S
F359        C906   1.383   1_455  S
F360        C906   1.385       .  S
C361        C362   1.402       .  A
C361        C366   1.410       .  A
C361        H368   1.083       .  S
C362        C363   1.413       .  A
C363        C364   1.406       .  A
C363        C370   1.521       .  S
C364        C365   1.412       .  A
C364        H369   1.082       .  S
C365        C366   1.427       .  A
C366        C367   1.521       .  S
C367        F371   1.385       .  S
C367        F372   1.381       .  S
C367        F373   1.383       .  S
C370        F374   1.384       .  S
C370        F375   1.382       .  S
C370        F376   1.384       .  S
C377        C378   1.402       .  A
C377        C382   1.409       .  A
C377        H384   1.083       .  S
C378        C379   1.417       .  A
C379        C380   1.406       .  A
C379        C386   1.521       .  S
C380        C381   1.408       .  A
C380        H385   1.082       .  S
C381        C382   1.425       .  A
C382        C383   1.521       .  S
C383        F387   1.385       .  S
C383        F388   1.384       .  S
C383        F389   1.383       .  S
C386        F390   1.384       .  S
C386        F391   1.382       .  S
C386        F392   1.385       .  S
C393        C398   1.406       .  A
C393        C946   1.410   1_565  A
C393        H400   1.082       .  S
C394        C593   1.484       .  S
C394        C395   1.419       .  A
C394        C945   1.403       .  A
C395        C396   1.408       .  A
C395        C402   1.520       .  S
C396        C397   1.406       .  A
C396        H401   1.083       .  S
C397        C950   1.423       .  A
C398        C949   1.411   1_565  A
C398        C399   1.519       .  S
C399        F403   1.384       .  S
C399        F404   1.383       .  S
C399        F405   1.383       .  S
C402        F406   1.384       .  S
C402        F407   1.382       .  S
C402        F408   1.385       .  S
C409        C410   1.407       .  A
C409        C414   1.405       .  A
C409        H416   1.087       .  S
C410        C594   1.488       .  S
C410        C963   1.424       .  A
C411        C412   1.403       .  A
C411        C962   1.419   1_545  A
C411        C418   1.522       .  S
C412        C965   1.406   1_545  A
C412        H417   1.086       .  S
C413        C414   1.417       .  A
C413        C964   1.402       .  A
C414        C415   1.520       .  S
C415        F419   1.385       .  S
C415        F420   1.383       .  S
C415        F421   1.383       .  S
C418        F422   1.384       .  S
C418        F423   1.383       .  S
C418        F424   1.385       .  S
C425        C430   1.408       .  A
C425       C1530   1.400   1_455  A
C425        H432   1.083       .  S
C426        C427   1.417       .  A
C426       C1529   1.402       .  A
C427        C428   1.406       .  A
C427        C434   1.521       .  S
C428       C1533   1.407       .  A
C428        H433   1.082       .  S
C429        C430   1.427       .  A
C429       C1532   1.409   1_455  A
C430        C431   1.522       .  S
C431        F435   1.385       .  S
C431        F436   1.383       .  S
C431        F437   1.384       .  S
C434        F438   1.384       .  S
C434        F439   1.382       .  S
C434        F440   1.385       .  S
C441        C442   1.405       .  A
C441        C446   1.410       .  A
C441        H448   1.083       .  S
C442        C443   1.422       .  A
C443        C444   1.413       .  A
C443        C450   1.520       .  S
C444        C445   1.407       .  A
C444        H449   1.083       .  S
C445        C446   1.423       .  A
C446        C447   1.521       .  S
C447        F451   1.385       .  S
C447        F452   1.383       .  S
C447        F453   1.384       .  S
C450        F454   1.384       .  S
C450        F455   1.383       .  S
C450        F456   1.385       .  S
C457        C458   1.407       .  A
C457        C462   1.411       .  A
C457        H464   1.083       .  S
C458        C459   1.419       .  A
C459        C460   1.410       .  A
C459        C466   1.519       .  S
C460        C461   1.406       .  A
C460        H465   1.083       .  S
C461        C462   1.419       .  A
C462        C463   1.519       .  S
C463        F467   1.385       .  S
C463        F468   1.382       .  S
C463        F469   1.384       .  S
C466        F470   1.384       .  S
C466        F471   1.382       .  S
C466        F472   1.385       .  S
C473        C478   1.406       .  A
C473       C1578   1.408       .  A
C473        H480   1.083       .  S
C474        C475   1.424       .  A
C474       C1577   1.407       .  A
C475        C476   1.409       .  A
C475        C482   1.521       .  S
C476        C477   1.403       .  A
C476        H481   1.083       .  S
C477       C1582   1.418   1_455  A
C478       C1581   1.418       .  A
C478        C479   1.521       .  S
C479        F483   1.385       .  S
C479        F484   1.384       .  S
C479        F485   1.383       .  S
C482        F486   1.384   1_455  S
C482        F487   1.383       .  S
C482        F488   1.385       .  S
C489        C494   1.406       .  A
C489       C1042   1.402   1_455  A
C489        H496   1.083       .  S
C490       C1041   1.401   1_655  A
C490       C1595   1.415       .  A
C491        C492   1.412       .  A
C491       C1594   1.427       .  A
C491        C498   1.520       .  S
C492       C2149   1.401       .  A
C492        H497   1.083       .  S
C493        C494   1.425   1_655  A
C493       C2148   1.408   1_545  A
C494        C495   1.522       .  S
C495        F499   1.385       .  S
C495        F501   1.384       .  S
C495       F1052   1.383   1_545  S
C498        F502   1.384       .  S
C498        F504   1.385       .  S
C498       F1055   1.383       .  S
F500       C1047   1.382       .  S
F503       C1050   1.383   1_545  S
C505        C506   1.406       .  A
C505        C510   1.408       .  A
C505        H512   1.082       .  S
C506        C507   1.426       .  A
C507        C508   1.409       .  A
C507        C514   1.523       .  S
C508        C509   1.407       .  A
C508        H513   1.082       .  S
C509        C510   1.425       .  A
C510        C511   1.522       .  S
C511        F515   1.385       .  S
C511        F516   1.383       .  S
C511        F517   1.384       .  S
C514        F518   1.383       .  S
C514        F519   1.384       .  S
C514        F520   1.385       .  S
C521        C522   1.410       .  A
C521        C526   1.410       .  A
C521        H528   1.082       .  S
C522        C523   1.423       .  A
C523        C524   1.408       .  A
C523        C530   1.523       .  S
C524        C525   1.409       .  A
C524        H529   1.081       .  S
C525        C526   1.422       .  A
C526        C527   1.521       .  S
C527        F531   1.385       .  S
C527        F532   1.384       .  S
C527        F533   1.383       .  S
C530        F534   1.384       .  S
C530        F535   1.383       .  S
C530        F536   1.385       .  S
C537        C542   1.407       .  A
C537       C2194   1.406       .  A
C537        H544   1.083       .  S
C538        C539   1.421   1_565  A
C538       C2193   1.407   1_655  A
C539        C540   1.408       .  A
C539        C546   1.521       .  S
C540        C541   1.405   1_545  A
C540        H545   1.082       .  S
C541       C2198   1.419   1_655  A
C542       C2197   1.419       .  A
C542        C543   1.520       .  S
C543        F547   1.385       .  S
C543        F549   1.383       .  S
C543       F1652   1.384       .  S
C546        F550   1.384   1_655  S
C546        F552   1.385   1_655  S
C546       F1655   1.383       .  S
F548       C1647   1.384       .  S
F551       C1650   1.383       .  S
O553        C563   1.263       .  A
O553       V1665   1.899       .  S
O554        C564   1.266       .  A
O555        C565   1.266   1_465  A
O555        V561   1.898       .  S
O556        V561   1.902       .  S
O557       C1670   1.264       .  A
O557        V562   1.904       .  S
O558       C1117   1.265       .  A
O558        V562   1.907       .  S
O559        C564   1.263       .  A
O559       V1666   1.899   1_455  S
O560        C563   1.265       .  A
V561       O1657   1.899   1_455  S
V561       V1114   2.083   1_465  T
V562       O1663   1.907       .  S
V562       V1113   2.080       .  T
C563       C1061   1.482       .  S
C564       C1074   1.498       .  S
C565       O1110   1.263       .  A
C565       C1042   1.484       .  S
C566       O1661   1.263       .  A
C566       C1090   1.489   1_655  S
O567        C577   1.265       .  A
O567        V575   1.906       .  S
O568        C578   1.267       .  A
O568       V1679   1.907       .  S
O569        C579   1.262   1_455  A
O569        V575   1.894       .  S
O570        C580   1.262   1_455  A
O570        V575   1.897       .  S
O571       C1684   1.265       .  A
O571        V576   1.897       .  S
O572       C1683   1.265       .  A
O572        V576   1.902       .  S
O573        C578   1.264       .  A
O573        V576   1.901       .  S
O574        C577   1.266       .  A
O574       V1680   1.905   1_455  S
V575       O1672   1.904   1_455  S
V575       V1680   2.083   1_455  T
V576       O1678   1.901       .  S
V576       V1679   2.083       .  T
C577       C1010   1.495       .  S
C578        C997   1.492       .  S
C579       O1676   1.266       .  A
C579       C1029   1.484       .  S
C580       O1675   1.266       .  A
C580        C981   1.492       .  S
O581        C591   1.267       .  A
O581        V589   1.906       .  S
O582        C592   1.264       .  A
O583        C593   1.264       .  A
O583        V589   1.895       .  S
O584        C594   1.262       .  A
O584        V589   1.895       .  S
O585        V590   1.902       .  S
O586        V590   1.906       .  S
O587        C592   1.267       .  A
O587        V590   1.906       .  S
O588        C591   1.263       .  A
C591        C994   1.489       .  S
C592       C1013   1.495       .  S
O595        C605   1.264       .  A
O595        V603   1.902       .  S
O596        C606   1.265       .  A
O596        V603   1.900       .  S
O597        C607   1.264       .  A
O597        V603   1.898       .  S
O598        C608   1.263       .  A
O598        V603   1.899       .  S
O599        C608   1.266       .  A
O599        V604   1.903       .  S
O600        C607   1.263       .  A
O600        V604   1.901       .  S
O601        C606   1.263       .  A
O601        V604   1.897       .  S
O602        C605   1.265       .  A
O602        V604   1.895       .  S
V603        V604   2.084       .  T
C605       C1077   1.498       .  S
C606       C1058   1.484       .  S
C607        C914   1.476       .  S
C608        C930   1.486       .  S
O609       V1721   1.905   1_554  S
O610        V617   1.900       .  S
O611        C621   1.266       .  A
O611        V617   1.902       .  S
O612        C622   1.266       .  A
O612        V617   1.901   1_554  S
O613       C1174   1.265       .  A
O613        V618   1.907       .  S
O614       C1173   1.266       .  A
O614        V618   1.909   1_556  S
O615        C620   1.261       .  A
O615       V1722   1.895   1_455  S
O616        C619   1.264   1_556  A
O616        V618   1.894   1_556  S
V617       O1713   1.898   1_455  S
V617       V1170   2.084   1_455  T
V618       O1719   1.893       .  S
V618       V1169   2.084   1_564  T
C619        C869   1.479       .  S
C620        C885   1.492       .  S
C621       O1166   1.263   1_455  A
C621        C898   1.486   1_455  S
C622       O1165   1.263   1_455  A
C622       C1093   1.491       .  S
O623        C633   1.263       .  A
O623        V631   1.898       .  S
O624        C634   1.263       .  A
O624        V631   1.898   1_554  S
O625        C635   1.263       .  A
O625        V631   1.898       .  S
O626        C636   1.265       .  A
O626       V1735   1.894       .  S
O627        C636   1.261       .  A
O627        V632   1.890       .  S
O628        C635   1.264       .  A
O628       V1736   1.895   1_455  S
O629       C1738   1.265       .  A
O629        V632   1.896   1_554  S
O630       C1737   1.265       .  A
O630        V632   1.896       .  S
V631       O1730   1.897   1_455  S
V631       V1736   2.083   1_455  T
V632       O1732   1.893       .  S
V632       V1735   2.081       .  T
C633       O1734   1.265   1_455  A
C633        C853   1.489       .  S
C634       O1733   1.265   1_455  A
C634       C1026   1.489       .  S
C635        C837   1.486       .  S
C636        C821   1.485       .  S
O637        C647   1.260       .  A
O637        V645   1.890       .  S
O638        C648   1.264       .  A
O638        V645   1.889       .  S
O639        C649   1.266       .  A
O639        V645   1.903   1_556  S
O640        C650   1.265       .  A
O640        V645   1.905       .  S
O641        V646   1.895       .  S
O642        V646   1.897   1_556  S
O643        V646   1.898       .  S
O644        V646   1.898       .  S
C647        C866   1.479       .  S
C648        C882   1.492       .  S
C649        C802   1.477       .  S
C650        C965   1.488       .  S
O651        C661   1.261       .  A
O651        V659   1.893       .  S
O652        C662   1.264       .  A
O652        V659   1.894       .  S
O653        C663   1.264       .  A
O653        V659   1.901       .  S
O654        C664   1.263       .  A
O654        V659   1.901   1_556  S
O655        C664   1.262       .  A
O655        V660   1.895   1_556  S
O656        C663   1.266       .  A
O656        V660   1.901       .  S
O657        C662   1.263       .  A
O657        V660   1.895       .  S
O658        C661   1.265       .  A
O658        V660   1.892       .  S
V659        V660   2.084       .  T
C661        C818   1.485   1_554  S
C662        C834   1.484       .  S
C663        C933   1.493       .  S
C664        C786   1.468       .  S
O665        C675   1.267   1_455  A
O666        C676   1.265   1_455  A
O666        V673   1.899       .  S
O667        C677   1.261   1_455  A
O667        V673   1.891       .  S
O668        C678   1.261   1_455  A
O668        V673   1.894       .  S
O669       C1230   1.266   1_565  A
O669        V674   1.902       .  S
O670       C1229   1.264       .  A
O670        V674   1.902       .  S
O671       C1780   1.263       .  A
O672       C1779   1.263       .  A
O672        V674   1.900       .  S
V673       V1226   2.083   1_455  T
V674       V1225   2.081   1_565  T
C675       O1776   1.263       .  A
C675        C757   1.494       .  S
C676       O1775   1.264       .  A
C676        C770   1.487       .  S
C677       O1222   1.268       .  A
C677        C901   1.492       .  S
C678       O1221   1.267       .  A
C678       C1045   1.480       .  S
O679       C1793   1.267       .  A
O679        V687   1.901       .  S
O680       C1794   1.264       .  A
O680        V687   1.896       .  S
O681        C691   1.261       .  A
O681        V687   1.893       .  S
O682        C692   1.261       .  A
O682        V687   1.892       .  S
O683       C1796   1.265   1_455  A
O683        V688   1.901       .  S
O684       C1795   1.263   1_455  A
O684        V688   1.900       .  S
O685        C690   1.262   1_455  A
O685        V688   1.896       .  S
O686        C689   1.262   1_455  A
O686        V688   1.896       .  S
V687       V1792   2.083       .  T
V688       V1791   2.085   1_455  T
C689       O1783   1.268       .  A
C689        C754   1.492       .  S
C690       O1784   1.267       .  A
C690        C773   1.489       .  S
C691       O1788   1.264       .  A
C691        C850   1.470       .  S
C692       O1787   1.266       .  A
C692        C978   1.490       .  S
O693        V701   1.904       .  S
O694        V701   1.905       .  S
O695        C705   1.267       .  A
O695        V701   1.905       .  S
O696        C706   1.265       .  A
O697        C706   1.264       .  A
O697        V702   1.904       .  S
O698        C705   1.262       .  A
O699        C704   1.262   1_565  A
O699        V702   1.895       .  S
O700        C703   1.261       .  A
O700        V702   1.894       .  S
C703        C805   1.493       .  S
C704        C949   1.470       .  S
C705        C738   1.489       .  S
C706        C722   1.497       .  S
O707        C717   1.265       .  A
O707        V715   1.896       .  S
O708        C718   1.266       .  A
O708        V715   1.899       .  S
O709        C719   1.266       .  A
O709        V715   1.903       .  S
O710        C720   1.266       .  A
O710        V715   1.900       .  S
O711        C720   1.262       .  A
O711        V716   1.896       .  S
O712        C719   1.263       .  A
O712        V716   1.898       .  S
O713        C718   1.263       .  A
O713        V716   1.899       .  S
O714        C717   1.264       .  A
O714        V716   1.902       .  S
V715        V716   2.081       .  T
C717        C789   1.484       .  S
C718        C917   1.497       .  S
C719        C741   1.488       .  S
C720        C725   1.496       .  S
C721        C722   1.408       .  A
C721        C726   1.406       .  A
C721        H728   1.081       .  S
C722        C723   1.423       .  A
C723        C724   1.409       .  A
C723        C730   1.522       .  S
C724        C725   1.408       .  A
C724        H729   1.082       .  S
C725        C726   1.423       .  A
C726        C727   1.524       .  S
C727        F731   1.385       .  S
C727        F732   1.383       .  S
C727        F733   1.384       .  S
C730        F734   1.383       .  S
C730        F735   1.383       .  S
C730        F736   1.385       .  S
C737        C738   1.405       .  A
C737        C742   1.408       .  A
C737        H744   1.083       .  S
C738        C739   1.422       .  A
C739        C740   1.408       .  A
C739        C746   1.521       .  S
C740        C741   1.405       .  A
C740        H745   1.083       .  S
C741        C742   1.421       .  A
C742        C743   1.521       .  S
C743        F747   1.385       .  S
C743        F748   1.382       .  S
C743        F749   1.384       .  S
C746        F750   1.384       .  S
C746        F751   1.383       .  S
C746        F752   1.385       .  S
C753       C1858   1.407       .  A
C753        C758   1.409       .  A
C753        H760   1.082       .  S
C754       C1857   1.405       .  A
C754        C755   1.423   1_655  A
C755        C756   1.407       .  A
C755        C762   1.522       .  S
C756        C757   1.405   1_455  A
C756        H761   1.082       .  S
C757       C1862   1.424       .  A
C758       C1861   1.425       .  A
C758        C759   1.523       .  S
C759        F763   1.385       .  S
C759        F764   1.383       .  S
C759        F765   1.383       .  S
C762        F766   1.383       .  S
C762        F767   1.382       .  S
C762        F768   1.385       .  S
C769        C770   1.403   1_455  A
C769        C774   1.406       .  A
C769        H776   1.083       .  S
C770       C1875   1.420       .  A
C771       C1874   1.421       .  A
C771        C772   1.406       .  A
C771        C778   1.521       .  S
C772       C1877   1.404       .  A
C772        H777   1.083       .  S
C773       C1876   1.406       .  A
C773        C774   1.422   1_655  A
C774        C775   1.520       .  S
C775        F779   1.385       .  S
C775        F780   1.383       .  S
C775        F781   1.382       .  S
C778        F782   1.384       .  S
C778        F783   1.383       .  S
C778        F784   1.385       .  S
C785        C786   1.400       .  A
C785        C790   1.408       .  A
C785        H792   1.084       .  S
C786        C787   1.409       .  A
C787        C788   1.404       .  A
C787        C794   1.518       .  S
C788        C789   1.407       .  A
C788        H793   1.083       .  S
C789        C790   1.422       .  A
C790        C791   1.519       .  S
C791        F795   1.385       .  S
C791        F796   1.382       .  S
C791        F797   1.384       .  S
C794        F798   1.383       .  S
C794        F799   1.383       .  S
C794        F800   1.384       .  S
C801        C806   1.405       .  A
C801        H808   1.083       .  S
C802        C803   1.416   1_565  A
C803        C804   1.406       .  A
C803        C810   1.521       .  S
C804        C805   1.408   1_545  A
C804        H809   1.082       .  S
C806        C807   1.522       .  S
C807        F813   1.382       .  S
C810        F814   1.384       .  S
C817        C818   1.405   1_554  A
C817        C822   1.403       .  A
C817        H824   1.082       .  S
C818        C819   1.422       .  A
C819        C820   1.404       .  A
C819        C826   1.523       .  S
C820        C821   1.405       .  A
C820        H825   1.082       .  S
C821        C822   1.422   1_556  A
C822        C823   1.523       .  S
C823        F827   1.385       .  S
C823        F828   1.383       .  S
C823        F829   1.384   1_554  S
C826        F830   1.383   1_556  S
C826        F831   1.384       .  S
C826        F832   1.385       .  S
C833        C834   1.405   1_556  A
C833        C838   1.405       .  A
C833        H840   1.083       .  S
C834        C835   1.419       .  A
C835        C836   1.406       .  A
C835        C842   1.521       .  S
C836        C837   1.406   1_554  A
C836        H841   1.083       .  S
C837        C838   1.420       .  A
C838        C839   1.521       .  S
C839        F843   1.385       .  S
C839        F844   1.383       .  S
C839        F845   1.384       .  S
C842        F846   1.384       .  S
C842        F847   1.383       .  S
C842        F848   1.385       .  S
C849        C850   1.398       .  A
C849        C854   1.409       .  A
C849        H856   1.083       .  S
C850       C1955   1.411       .  A
C851       C1954   1.409       .  A
C851        C852   1.403       .  A
C851        C858   1.518       .  S
C852        C853   1.409   1_655  A
C852        H857   1.082       .  S
C853       C1958   1.426       .  A
C854       C1957   1.428       .  A
C854        C855   1.521       .  S
C855        F859   1.385       .  S
C855        F860   1.383       .  S
C855        F861   1.384       .  S
C858        F862   1.383   1_655  S
C858        F863   1.383       .  S
C858        F864   1.384       .  S
C865        C870   1.408       .  A
C865        H872   1.082       .  S
C866        C867   1.420   1_554  A
C867        C868   1.404       .  A
C867        C874   1.522       .  S
C868        C869   1.404   1_556  A
C868        H873   1.083       .  S
C870        C871   1.521       .  S
C871        F875   1.385       .  S
C871        F876   1.383   1_554  S
C871        F877   1.384       .  S
C874        F878   1.384       .  S
C874        F879   1.383       .  S
C874        F880   1.385       .  S
C881        C882   1.408       .  A
C881        C886   1.405       .  A
C881        H888   1.082       .  S
C883        C884   1.406       .  A
C883        C890   1.518       .  S
C884        H889   1.084       .  S
C885        C886   1.423       .  A
C886        C887   1.524   1_554  S
C887        F893   1.383       .  S
C890        F894   1.382       .  S
C897       C2002   1.398       .  A
C897        C902   1.409       .  A
C897        H904   1.083       .  S
C898       C2001   1.401   1_655  A
C899        C900   1.410       .  A
C899        C906   1.518       .  S
C900        H905   1.084       .  S
C901       C2006   1.425   1_655  A
C902       C2005   1.429       .  A
C902        C903   1.522       .  S
C903        F909   1.384       .  S
C906        F910   1.382       .  S
C913        C914   1.399       .  A
C913        C918   1.408       .  A
C913        H920   1.083       .  S
C914        C915   1.413       .  A
C915        C916   1.407       .  A
C915        C922   1.520       .  S
C916        C917   1.412       .  A
C916        H921   1.082       .  S
C917        C918   1.427       .  A
C918        C919   1.522       .  S
C919        F923   1.385       .  S
C919        F924   1.383       .  S
C919        F925   1.384       .  S
C922        F926   1.383       .  S
C922        F927   1.382       .  S
C922        F928   1.385       .  S
C929        C930   1.403       .  A
C929        C934   1.409       .  A
C929        H936   1.083       .  S
C930        C931   1.419       .  A
C931        C932   1.408       .  A
C931        C938   1.521       .  S
C932        C933   1.407       .  A
C932        H937   1.082       .  S
C933        C934   1.423       .  A
C934        C935   1.520       .  S
C935        F939   1.384       .  S
C935        F940   1.384       .  S
C935        F941   1.383       .  S
C938        F942   1.384       .  S
C938        F943   1.383       .  S
C938        F944   1.385       .  S
C945        C950   1.405       .  A
C945        H952   1.083       .  S
C946        C947   1.429       .  A
C947        C948   1.407       .  A
C947        C954   1.522       .  S
C948        C949   1.396       .  A
C948        H953   1.083       .  S
C950        C951   1.522       .  S
C951        F955   1.385       .  S
C951        F956   1.384       .  S
C951        F957   1.383       .  S
C954        F958   1.383       .  S
C954        F959   1.384       .  S
C954        F960   1.385       .  S
C961        C962   1.404       .  A
C961        C966   1.408       .  A
C961        H968   1.087       .  S
C963        C964   1.405       .  A
C963        C970   1.522       .  S
C964        H969   1.088       .  S
C965        C966   1.421       .  A
C966        C967   1.519       .  S
C967        F971   1.384       .  S
C967        F972   1.384       .  S
C967        F973   1.383       .  S
C970        F974   1.383       .  S
C970        F975   1.383       .  S
C970        F976   1.385       .  S
C977       C2082   1.403   1_455  A
C977        C982   1.408       .  A
C977        H984   1.081       .  S
C978       C2081   1.408       .  A
C978        C979   1.423       .  A
C979        C980   1.404       .  A
C979        C986   1.522       .  S
C980       C2085   1.401       .  A
C980        H985   1.081       .  S
C981       C2084   1.408       .  A
C981        C982   1.424   1_655  A
C982        C983   1.522       .  S
C983        F987   1.385       .  S
C983        F988   1.383       .  S
C983        F989   1.384       .  S
C986        F990   1.383       .  S
C986        F991   1.384       .  S
C986        F992   1.385       .  S
C993        C994   1.403       .  A
C993        C998   1.409       .  A
C993       H1000   1.083       .  S
C994        C995   1.421       .  A
C995        C996   1.410       .  A
C995       C1002   1.520       .  S
C996        C997   1.405       .  A
C996       H1001   1.082       .  S
C997        C998   1.422       .  A
C998        C999   1.520       .  S
C999       F1003   1.385       .  S
C999       F1004   1.382       .  S
C999       F1005   1.382       .  S
C1002      F1006   1.384       .  S
C1002      F1007   1.383       .  S
C1002      F1008   1.385       .  S
C1009      C1010   1.406       .  A
C1009      C1014   1.411       .  A
C1009      H1016   1.083       .  S
C1010      C1011   1.422       .  A
C1011      C1012   1.411       .  A
C1011      C1018   1.520       .  S
C1012      C1013   1.406       .  A
C1012      H1017   1.083       .  S
C1013      C1014   1.422       .  A
C1014      C1015   1.520       .  S
C1015      F1019   1.385       .  S
C1015      F1020   1.383       .  S
C1015      F1021   1.383       .  S
C1018      F1022   1.384       .  S
C1018      F1023   1.382       .  S
C1018      F1024   1.385       .  S
C1025      C2130   1.405       .  A
C1025      C1030   1.403       .  A
C1025      H1032   1.083       .  S
C1026      C2129   1.405   1_455  A
C1026      C1027   1.423       .  A
C1027      C1028   1.409       .  A
C1027      C1034   1.521       .  S
C1028      C1029   1.404   1_455  A
C1028      H1033   1.083       .  S
C1029      C2134   1.419       .  A
C1030      C2133   1.419       .  A
C1030      C1031   1.521       .  S
C1031      F1035   1.385       .  S
C1031      F1036   1.383       .  S
C1031      F1037   1.382       .  S
C1034      F1038   1.384   1_455  S
C1034      F1039   1.383       .  S
C1034      F1040   1.385       .  S
C1041      C1046   1.408       .  A
C1041      H1048   1.083       .  S
C1042      C2147   1.418   1_545  A
C1043      C2146   1.416   1_565  A
C1043      C1044   1.409       .  A
C1043      C1050   1.519       .  S
C1044      C1597   1.410   1_565  A
C1044      H1049   1.082       .  S
C1045      C1596   1.403       .  A
C1045      C1046   1.420   1_655  A
C1046      C1047   1.520       .  S
C1047      F1051   1.385       .  S
C1047      F1053   1.383   1_455  S
C1050      F1054   1.382       .  S
C1050      F1056   1.385       .  S
C1057      C1058   1.404       .  A
C1057      C1062   1.406       .  A
C1057      H1064   1.083       .  S
C1058      C1059   1.420       .  A
C1059      C1060   1.407       .  A
C1059      C1066   1.520       .  S
C1060      C1061   1.403       .  A
C1060      H1065   1.082       .  S
C1061      C1062   1.419       .  A
C1062      C1063   1.520       .  S
C1063      F1067   1.385       .  S
C1063      F1068   1.382       .  S
C1063      F1069   1.383       .  S
C1066      F1070   1.384       .  S
C1066      F1071   1.383       .  S
C1066      F1072   1.385       .  S
C1073      C1074   1.409       .  A
C1073      C1078   1.409       .  A
C1073      H1080   1.082       .  S
C1074      C1075   1.424       .  A
C1075      C1076   1.407       .  A
C1075      C1082   1.523       .  S
C1076      C1077   1.408       .  A
C1076      H1081   1.081       .  S
C1077      C1078   1.423       .  A
C1078      C1079   1.523       .  S
C1079      F1083   1.385       .  S
C1079      F1084   1.384       .  S
C1079      F1085   1.383       .  S
C1082      F1086   1.384       .  S
C1082      F1087   1.383       .  S
C1082      F1088   1.385       .  S
C1089      C1642   1.408       .  A
C1089      C1094   1.409       .  A
C1089      H1096   1.082       .  S
C1090      C1641   1.405       .  A
C1090      C1091   1.421       .  A
C1091      C1092   1.409       .  A
C1091      C1098   1.521       .  S
C1092      C1093   1.407       .  A
C1092      H1097   1.082       .  S
C1093      C1646   1.422       .  A
C1094      C1645   1.418       .  A
C1094      C1095   1.520       .  S
C1095      F1099   1.385       .  S
C1095      F2204   1.384       .  S
C1095      F1101   1.383       .  S
C1098      F1102   1.383       .  S
C1098      F2207   1.383   1_455  S
C1098      F1104   1.385       .  S
F1100      C2199   1.383       .  S
F1103      C2202   1.383       .  S
O1105      C1115   1.262       .  A
O1106      C1116   1.266       .  A
O1106      V1665   1.898   1_545  S
O1107      C1117   1.265       .  A
O1107      V1113   1.893       .  S
O1108      C1670   1.264       .  A
O1108      V1113   1.894       .  S
O1109      V1114   1.901       .  S
O1110      V1114   1.901       .  S
O1111      C1116   1.264       .  A
O1112      C1115   1.267       .  A
O1112      V1666   1.904       .  S
V1113      O1658   1.898       .  S
V1114      O1664   1.902   1_545  S
C1115      C1613   1.498       .  S
C1116      C1626   1.500       .  S
C1117      C1594   1.498       .  S
C1118      O1660   1.264       .  A
C1118      C1642   1.490       .  S
O1119      C1129   1.264       .  A
O1119      V1127   1.904       .  S
O1120      C1130   1.267       .  A
O1121      C1131   1.264       .  A
O1121      V1127   1.900       .  S
O1122      C1132   1.262       .  A
O1122      V1127   1.896       .  S
O1123      V1128   1.897       .  S
O1124      V1128   1.903       .  S
O1125      C1130   1.264       .  A
O1125      V1128   1.903       .  S
O1126      C1129   1.267       .  A
C1129      C1562   1.498       .  S
C1130      C1549   1.495       .  S
C1131      C1581   1.486       .  S
C1132      C1533   1.487       .  S
O1133      C1143   1.267       .  A
O1133      V1141   1.906       .  S
O1134      C1144   1.264       .  A
O1134      V1693   1.903       .  S
O1135      C1145   1.262       .  A
O1135      V1141   1.895       .  S
O1136      C1146   1.262   1_545  A
O1136      V1141   1.894       .  S
O1137      C1698   1.264       .  A
O1137      V1142   1.893       .  S
O1138      C1697   1.262       .  A
O1138      V1142   1.895       .  S
O1139      C1144   1.267       .  A
O1139      V1142   1.904       .  S
O1140      C1143   1.264       .  A
O1140      V1694   1.902   1_545  S
V1141      O1686   1.904   1_545  S
V1141      V1694   2.081   1_545  T
V1142      O1692   1.904       .  S
V1142      V1693   2.083       .  T
C1143      C1546   1.496       .  S
C1144      C1565   1.496       .  S
C1145      O1690   1.267   1_545  A
C1145      C2050   1.493       .  S
C1146      O1689   1.266       .  A
C1146      C2066   1.483       .  S
O1147      C1157   1.265       .  A
O1147      V1155   1.905       .  S
O1148      C1158   1.267       .  A
O1148      V1155   1.901       .  S
O1149      C1159   1.262       .  A
O1149      V1155   1.893       .  S
O1150      C1160   1.260       .  A
O1150      V1155   1.887       .  S
O1151      C1160   1.268       .  A
O1151      V1156   1.910       .  S
O1152      C1159   1.266       .  A
O1152      V1156   1.909       .  S
O1153      C1158   1.262       .  A
O1153      V1156   1.898       .  S
O1154      C1157   1.265       .  A
O1154      V1156   1.897       .  S
V1155      V1156   2.081       .  T
C1157      C1629   1.501       .  S
C1158      C1610   1.498       .  S
C1159      C1466   1.477       .  S
C1160      C1482   1.490       .  S
O1161      C1723   1.261   1_545  A
O1162      C1724   1.265   1_546  A
O1162      V1169   1.892       .  S
O1163      C1173   1.263   1_545  A
O1163      V1169   1.896       .  S
O1164      C1174   1.264   1_545  A
O1164      V1169   1.894   1_554  S
O1165      V1170   1.899   1_554  S
O1166      V1170   1.900       .  S
O1167      C1172   1.262       .  A
O1168      C1171   1.265       .  A
O1168      V1170   1.895   1_554  S
C1171      O1713   1.263   1_554  A
C1171      C1421   1.485       .  S
C1172      O1714   1.267       .  A
C1172      C1437   1.480       .  S
C1173      C1450   1.478       .  S
C1174      C1645   1.487       .  S
O1175      C1185   1.265       .  A
O1175      V1183   1.908       .  S
O1176      C1186   1.265       .  A
O1176      V1183   1.906   1_554  S
O1177      C1187   1.261       .  A
O1177      V1183   1.893       .  S
O1178      C1188   1.264       .  A
O1179      C1188   1.263       .  A
O1179      V1184   1.898       .  S
O1180      C1187   1.265       .  A
O1181      V1184   1.896   1_554  S
O1182      V1184   1.894       .  S
C1185      C1405   1.496       .  S
C1186      C1578   1.491       .  S
C1187      C1389   1.485       .  S
C1188      C1373   1.483       .  S
O1189      C1199   1.263       .  A
O1189      V1197   1.898       .  S
O1190      C1200   1.264       .  A
O1190      V1197   1.902       .  S
O1191      C1201   1.265       .  A
O1191      V1197   1.900   1_556  S
O1192      C1202   1.264       .  A
O1192      V1197   1.902       .  S
O1193      C1754   1.265   1_545  A
O1193      V1198   1.894       .  S
O1194      C1753   1.261   1_545  A
O1194      V1198   1.893   1_556  S
O1195      C1752   1.262   1_545  A
O1195      V1198   1.895       .  S
O1196      C1751   1.265   1_545  A
O1196      V1198   1.894       .  S
V1197      V1750   2.086       .  T
V1198      V1749   2.083   1_545  T
C1199      O1748   1.266       .  A
C1199      C1418   1.489       .  S
C1200      O1747   1.264       .  A
C1200      C1434   1.480       .  S
C1201      O1746   1.261       .  A
C1201      C1354   1.477       .  S
C1202      O1745   1.263       .  A
C1202      C1517   1.478       .  S
O1203      C1213   1.263       .  A
O1203      V1211   1.899       .  S
O1204      C1214   1.265       .  A
O1204      V1211   1.895       .  S
O1205      C1215   1.264       .  A
O1205      V1211   1.903   1_554  S
O1206      C1216   1.264       .  A
O1206      V1211   1.902       .  S
O1207      C1216   1.265       .  A
O1207      V1212   1.891       .  S
O1208      C1215   1.264       .  A
O1208      V1212   1.892   1_554  S
O1209      C1214   1.260       .  A
O1209      V1212   1.888       .  S
O1210      C1213   1.264       .  A
O1210      V1212   1.893       .  S
V1211      V1212   2.083       .  T
C1213      C1370   1.485       .  S
C1214      C1386   1.482       .  S
C1215      C1485   1.483       .  S
C1216      C1338   1.494       .  S
O1217      C1227   1.266       .  A
O1217      V1777   1.896       .  S
O1218      C1228   1.267       .  A
O1218      V1225   1.904       .  S
O1219      C1229   1.264   1_545  A
O1219      V1225   1.903       .  S
O1220      C1230   1.263       .  A
O1220      V1225   1.899       .  S
O1221      V1226   1.910       .  S
O1222      V1226   1.908       .  S
O1223      V1778   1.900   1_545  S
O1224      V1226   1.905       .  S
V1225      O1769   1.904   1_545  S
V1226      O1775   1.903       .  S
C1227      C1309   1.495       .  S
C1228      C1322   1.495       .  S
C1229      C1453   1.479       .  S
C1230      C1597   1.497       .  S
O1231      V1239   1.905       .  S
O1232      V1239   1.902       .  S
O1233      C1243   1.262       .  A
O1233      V1239   1.893       .  S
O1234      C1244   1.262       .  A
O1234      V1239   1.895       .  S
O1235      V1240   1.896       .  S
O1236      V1240   1.898       .  S
O1237      C1242   1.263       .  A
O1237      V1240   1.900       .  S
O1238      C1241   1.262       .  A
O1238      V1240   1.896       .  S
C1241      C1306   1.495       .  S
C1242      C1325   1.495       .  S
C1243      C1402   1.473       .  S
C1244      C1530   1.475       .  S
O1245      C1807   1.266   1_545  A
O1245      V1253   1.899       .  S
O1246      C1808   1.263       .  A
O1246      V1253   1.899       .  S
O1247      C1257   1.266       .  A
O1247      V1253   1.904       .  S
O1248      C1258   1.265       .  A
O1248      V1805   1.899       .  S
O1249      C1258   1.264       .  A
O1249      V1254   1.900       .  S
O1250      C1257   1.264       .  A
O1250      V1806   1.903   1_545  S
O1251      C1256   1.261       .  A
O1251      V1254   1.891       .  S
O1252      C1255   1.260       .  A
O1252      V1254   1.890       .  S
V1253      O1800   1.901   1_545  S
V1253      V1806   2.083   1_545  T
V1254      O1802   1.902       .  S
V1254      V1805   2.082       .  T
C1255      O1797   1.267       .  A
C1255      C1357   1.490       .  S
C1256      O1798   1.266       .  A
C1256      C1501   1.484       .  S
C1257      C1290   1.490       .  S
C1258      C1274   1.492       .  S
O1259      C1269   1.262       .  A
O1259      V1267   1.894       .  S
O1260      C1270   1.265       .  A
O1260      V1267   1.898       .  S
O1261      C1271   1.266       .  A
O1261      V1267   1.904       .  S
O1262      C1272   1.266       .  A
O1262      V1267   1.900       .  S
O1263      C1272   1.263       .  A
O1263      V1268   1.900       .  S
O1264      C1271   1.264       .  A
O1264      V1268   1.902       .  S
O1265      C1270   1.264       .  A
O1265      V1268   1.902       .  S
O1266      C1269   1.264       .  A
O1266      V1268   1.902       .  S
V1267      V1268   2.083       .  T
C1269      C1341   1.473       .  S
C1270      C1469   1.499       .  S
C1271      C1293   1.490       .  S
C1272      C1277   1.491       .  S
C1273      C1274   1.407       .  A
C1273      C1278   1.409       .  A
C1273      H1280   1.082       .  S
C1274      C1275   1.421       .  A
C1275      C1276   1.407       .  A
C1275      C1282   1.521       .  S
C1276      C1277   1.405       .  A
C1276      H1281   1.083       .  S
C1277      C1278   1.422       .  A
C1278      C1279   1.521       .  S
C1279      F1283   1.385       .  S
C1279      F1284   1.383       .  S
C1279      F1285   1.382       .  S
C1282      F1286   1.384       .  S
C1282      F1287   1.383       .  S
C1282      F1288   1.385       .  S
C1289      C1290   1.405       .  A
C1289      C1294   1.409       .  A
C1289      H1296   1.083       .  S
C1290      C1291   1.420       .  A
C1291      C1292   1.410       .  A
C1291      C1298   1.519       .  S
C1292      C1293   1.406       .  A
C1292      H1297   1.083       .  S
C1293      C1294   1.420       .  A
C1294      C1295   1.520       .  S
C1295      F1299   1.385       .  S
C1295      F1300   1.382       .  S
C1295      F1301   1.384       .  S
C1298      F1302   1.383       .  S
C1298      F1303   1.383       .  S
C1298      F1304   1.385       .  S
C1305      C1310   1.412       .  A
C1305      H1312   1.082       .  S
C1306      C1307   1.424       .  A
C1307      C1308   1.406       .  A
C1307      C1314   1.523       .  S
C1308      C1309   1.406       .  A
C1308      H1313   1.082       .  S
C1310      C1311   1.521       .  S
C1311      F1315   1.385       .  S
C1311      F1316   1.383       .  S
C1311      F1317   1.383       .  S
C1314      F1318   1.383       .  S
C1314      F1319   1.383       .  S
C1314      F1320   1.385       .  S
C1321      C1322   1.406       .  A
C1321      C1326   1.410       .  A
C1321      H1328   1.082       .  S
C1323      C1324   1.407       .  A
C1323      C1330   1.521       .  S
C1324      H1329   1.083       .  S
C1325      C1326   1.424       .  A
C1326      C1327   1.521       .  S
C1327      F1331   1.385       .  S
C1327      F1332   1.383       .  S
C1327      F1333   1.384       .  S
C1330      F1334   1.382       .  S
C1330      F1335   1.383       .  S
C1330      F1336   1.385       .  S
C1337      C1338   1.411       .  A
C1337      C1342   1.403       .  A
C1337      H1344   1.082       .  S
C1338      C1339   1.427       .  A
C1339      C1340   1.409       .  A
C1339      C1346   1.522       .  S
C1340      C1341   1.400       .  A
C1340      H1345   1.081       .  S
C1341      C1342   1.411       .  A
C1342      C1343   1.520       .  S
C1343      F1347   1.385       .  S
C1343      F1348   1.383       .  S
C1343      F1349   1.382       .  S
C1346      F1350   1.382       .  S
C1346      F1351   1.384       .  S
C1346      F1352   1.385       .  S
C1353      C1906   1.398       .  A
C1353      C1358   1.408       .  A
C1353      H1360   1.083       .  S
C1354      C1905   1.400       .  A
C1354      C1355   1.416       .  A
C1355      C1356   1.406       .  A
C1355      C1362   1.521       .  S
C1356      C1357   1.407       .  A
C1356      H1361   1.082       .  S
C1357      C1910   1.426       .  A
C1358      C1909   1.428       .  A
C1358      C1359   1.522       .  S
C1359      F1915   1.385       .  S
C1359      F1916   1.382       .  S
C1359      F1365   1.383       .  S
C1362      F1366   1.384       .  S
C1362      F1919   1.382       .  S
C1362      F1920   1.385       .  S
F1363      C1911   1.385       .  S
F1364      C1911   1.384       .  S
F1367      C1914   1.382       .  S
F1368      C1914   1.385       .  S
C1369      C1370   1.406   1_554  A
C1369      C1374   1.406       .  A
C1369      H1376   1.083       .  S
C1370      C1371   1.420       .  A
C1371      C1372   1.404       .  A
C1371      C1378   1.520       .  S
C1372      C1373   1.405       .  A
C1372      H1377   1.083       .  S
C1373      C1374   1.420   1_556  A
C1374      C1375   1.521       .  S
C1375      F1379   1.385       .  S
C1375      F1380   1.384       .  S
C1375      F1381   1.383       .  S
C1378      F1382   1.383       .  S
C1378      F1383   1.383       .  S
C1378      F1384   1.385       .  S
C1385      C1386   1.404       .  A
C1385      C1390   1.404       .  A
C1385      H1392   1.082       .  S
C1386      C1387   1.421   1_556  A
C1387      C1388   1.403       .  A
C1387      C1394   1.522       .  S
C1388      C1389   1.404   1_554  A
C1388      H1393   1.082       .  S
C1389      C1390   1.422       .  A
C1390      C1391   1.520       .  S
C1391      F1395   1.385       .  S
C1391      F1396   1.383       .  S
C1391      F1397   1.380       .  S
C1394      F1398   1.384       .  S
C1394      F1399   1.383   1_554  S
C1394      F1400   1.385       .  S
C1401      C1402   1.400   1_455  A
C1401      C1406   1.406       .  A
C1401      H1408   1.083       .  S
C1403      C1404   1.404       .  A
C1403      C1410   1.521       .  S
C1404      C1405   1.412       .  A
C1404      H1409   1.082       .  S
C1406      C1407   1.521       .  S
C1407      F1411   1.385       .  S
C1407      F1412   1.378       .  S
C1407      F1413   1.383       .  S
C1410      F1414   1.384       .  S
C1410      F1415   1.383       .  S
C1410      F1416   1.385       .  S
C1417      C1970   1.405   1_545  A
C1417      C1422   1.403       .  A
C1417      H1424   1.083       .  S
C1418      C1969   1.407       .  A
C1418      C1419   1.422   1_554  A
C1419      C1420   1.406       .  A
C1419      C1426   1.522       .  S
C1420      C1421   1.404   1_556  A
C1420      H1425   1.082       .  S
C1421      C1974   1.419       .  A
C1422      C1973   1.419   1_545  A
C1422      C1423   1.521       .  S
C1423      F1427   1.385       .  S
C1423      F1428   1.383       .  S
C1423      F1429   1.383       .  S
C1426      F1430   1.384       .  S
C1426      F1431   1.383       .  S
C1426      F1432   1.385       .  S
C1433      C1434   1.403   1_556  A
C1433      C1438   1.409       .  A
C1433      H1440   1.084       .  S
C1434      C1987   1.417       .  A
C1435      C1986   1.421   1_545  A
C1435      C1436   1.404       .  A
C1435      C1442   1.523       .  S
C1436      C1989   1.407   1_545  A
C1436      H1441   1.082       .  S
C1437      C1988   1.402   1_556  A
C1437      C1438   1.420       .  A
C1438      C1439   1.519       .  S
C1439      F1995   1.382       .  S
C1439      F1996   1.385       .  S
C1439      F1445   1.382       .  S
C1442      F1446   1.383   1_554  S
C1442      F1999   1.384       .  S
C1442      F2000   1.385       .  S
F1443      C1991   1.383   1_554  S
F1444      C1991   1.385       .  S
F1447      C1994   1.382       .  S
F1448      C1994   1.384       .  S
C1449      C1454   1.405       .  A
C1449      H1456   1.083       .  S
C1450      C2003   1.415       .  A
C1451      C2002   1.412       .  A
C1451      C1452   1.406       .  A
C1451      C1458   1.519       .  S
C1452      C2005   1.409       .  A
C1452      H1457   1.083       .  S
C1453      C2004   1.404       .  A
C1454      C1455   1.518       .  S
C1455      F2011   1.384       .  S
C1455      F2012   1.383       .  S
C1455      F1461   1.383   1_655  S
C1458      F1462   1.383       .  S
C1458      F2015   1.382       .  S
C1458      F2016   1.384       .  S
F1459      C2007   1.385       .  S
F1460      C2007   1.384       .  S
F1463      C2010   1.384       .  S
F1464      C2010   1.385       .  S
C1465      C1466   1.401       .  A
C1465      C1470   1.409       .  A
C1465      H1472   1.083       .  S
C1466      C1467   1.411       .  A
C1467      C1468   1.407       .  A
C1467      C1474   1.519       .  S
C1468      C1469   1.412       .  A
C1468      H1473   1.082       .  S
C1469      C1470   1.427       .  A
C1470      C1471   1.522       .  S
C1471      F1475   1.385       .  S
C1471      F1476   1.383       .  S
C1471      F1477   1.384       .  S
C1474      F1478   1.384       .  S
C1474      F1479   1.382       .  S
C1474      F1480   1.385       .  S
C1481      C1482   1.408       .  A
C1481      C1486   1.410       .  A
C1481      H1488   1.083       .  S
C1482      C1483   1.424       .  A
C1483      C1484   1.403       .  A
C1483      C1490   1.522       .  S
C1484      C1485   1.401       .  A
C1484      H1489   1.083       .  S
C1485      C1486   1.419       .  A
C1486      C1487   1.520       .  S
C1487      F1491   1.385       .  S
C1487      F1492   1.384       .  S
C1487      F1493   1.382       .  S
C1490      F1494   1.383       .  S
C1490      F1495   1.383       .  S
C1490      F1496   1.385       .  S
C1497      C2050   1.410   1_565  A
C1497      C1502   1.407       .  A
C1497      H1504   1.082       .  S
C1498      C1697   1.485       .  S
C1498      C2049   1.404       .  A
C1498      C1499   1.422       .  A
C1499      C1500   1.407       .  A
C1499      C1506   1.521       .  S
C1500      C1501   1.404       .  A
C1500      H1505   1.083       .  S
C1501      C2054   1.421       .  A
C1502      C2053   1.411   1_565  A
C1502      C1503   1.519       .  S
C1503      F1507   1.384       .  S
C1503      F1508   1.383       .  S
C1503      F1509   1.383       .  S
C1506      F1510   1.384       .  S
C1506      F1511   1.383       .  S
C1506      F1512   1.385       .  S
C1513      C1514   1.410       .  A
C1513      C1518   1.406       .  A
C1513      H1520   1.086       .  S
C1514      C1698   1.490       .  S
C1514      C2067   1.423       .  A
C1515      C2066   1.418   1_545  A
C1515      C1516   1.405       .  A
C1515      C1522   1.521       .  S
C1516      C2069   1.408   1_545  A
C1516      H1521   1.086       .  S
C1517      C2068   1.401       .  A
C1517      C1518   1.415       .  A
C1518      C1519   1.521       .  S
C1519      F1523   1.385       .  S
C1519      F1524   1.384       .  S
C1519      F1525   1.382       .  S
C1522      F1526   1.383       .  S
C1522      F1527   1.383       .  S
C1522      F1528   1.385       .  S
C1529      C1534   1.406       .  A
C1529      H1536   1.083       .  S
C1530      C1531   1.414       .  A
C1531      C1532   1.404       .  A
C1531      C1538   1.521       .  S
C1532      H1537   1.082       .  S
C1533      C1534   1.423       .  A
C1534      C1535   1.522       .  S
C1535      F1539   1.385       .  S
C1535      F1540   1.384       .  S
C1535      F1541   1.383       .  S
C1538      F1542   1.383       .  S
C1538      F1543   1.382       .  S
C1538      F1544   1.385       .  S
C1545      C1546   1.406       .  A
C1545      C1550   1.410       .  A
C1545      H1552   1.083       .  S
C1546      C1547   1.423       .  A
C1547      C1548   1.411       .  A
C1547      C1554   1.521       .  S
C1548      C1549   1.405       .  A
C1548      H1553   1.083       .  S
C1549      C1550   1.423       .  A
C1550      C1551   1.521       .  S
C1551      F1555   1.385       .  S
C1551      F1556   1.383       .  S
C1551      F1557   1.384       .  S
C1554      F1558   1.384       .  S
C1554      F1559   1.383       .  S
C1554      F1560   1.385       .  S
C1561      C1562   1.408       .  A
C1561      C1566   1.411       .  A
C1561      H1568   1.083       .  S
C1562      C1563   1.423       .  A
C1563      C1564   1.410       .  A
C1563      C1570   1.521       .  S
C1564      C1565   1.406       .  A
C1564      H1569   1.082       .  S
C1565      C1566   1.422       .  A
C1566      C1567   1.521       .  S
C1567      F1571   1.385       .  S
C1567      F1572   1.383       .  S
C1567      F1573   1.384       .  S
C1570      F1574   1.383       .  S
C1570      F1575   1.383       .  S
C1570      F1576   1.385       .  S
C1577      C1582   1.406   1_455  A
C1577      H1584   1.082   1_455  S
C1578      C1579   1.421       .  A
C1579      C1580   1.409       .  A
C1579      C1586   1.520       .  S
C1580      C1581   1.405       .  A
C1580      H1585   1.083       .  S
C1582      C1583   1.521       .  S
C1583      F1587   1.385       .  S
C1583      F1588   1.384       .  S
C1583      F1589   1.382   1_655  S
C1586      F1590   1.384       .  S
C1586      F1591   1.383       .  S
C1586      F1592   1.385       .  S
C1593      C2146   1.402       .  A
C1593      C1598   1.408       .  A
C1593      H1600   1.083       .  S
C1594      C2145   1.410       .  A
C1595      C1596   1.408       .  A
C1595      C1602   1.517       .  S
C1596      H1601   1.083       .  S
C1597      C1598   1.426       .  A
C1598      C1599   1.521       .  S
C1599      F1603   1.385       .  S
C1599      F2156   1.383       .  S
C1599      F1605   1.384       .  S
C1602      F1606   1.382       .  S
C1602      F2159   1.383       .  S
C1602      F1608   1.385       .  S
F1604      C2151   1.384       .  S
F1607      C2154   1.383   1_545  S
C1609      C1610   1.406       .  A
C1609      C1614   1.407       .  A
C1609      H1616   1.082       .  S
C1610      C1611   1.425       .  A
C1611      C1612   1.409       .  A
C1611      C1618   1.523       .  S
C1612      C1613   1.408       .  A
C1612      H1617   1.082       .  S
C1613      C1614   1.425       .  A
C1614      C1615   1.523       .  S
C1615      F1619   1.385       .  S
C1615      F1620   1.382       .  S
C1615      F1621   1.384       .  S
C1618      F1622   1.383       .  S
C1618      F1623   1.384       .  S
C1618      F1624   1.385       .  S
C1625      C1626   1.409       .  A
C1625      C1630   1.409       .  A
C1625      H1632   1.081       .  S
C1626      C1627   1.424       .  A
C1627      C1628   1.409       .  A
C1627      C1634   1.523       .  S
C1628      C1629   1.409       .  A
C1628      H1633   1.081       .  S
C1629      C1630   1.423       .  A
C1630      C1631   1.522       .  S
C1631      F1635   1.385       .  S
C1631      F1636   1.383       .  S
C1631      F1637   1.383       .  S
C1634      F1638   1.383       .  S
C1634      F1639   1.383       .  S
C1634      F1640   1.385       .  S
C1641      C1646   1.408       .  A
C1641      H1648   1.083       .  S
C1642      C1643   1.420   1_565  A
C1643      C1644   1.406       .  A
C1643      C1650   1.520       .  S
C1644      C1645   1.404   1_545  A
C1644      H1649   1.082       .  S
C1646      C1647   1.521       .  S
C1647      F1651   1.385       .  S
C1647      F1653   1.383   1_455  S
C1650      F1654   1.383       .  S
C1650      F1656   1.385       .  S
O1657      C1667   1.263       .  A
O1658      C1668   1.266       .  A
O1659      C1669   1.265   1_565  A
O1659      V1665   1.897       .  S
O1660      V1665   1.899       .  S
O1661      V1666   1.901       .  S
O1662      V1666   1.902       .  S
O1663      C1668   1.265       .  A
O1664      C1667   1.265       .  A
C1667      C2165   1.482       .  S
C1668      C2178   1.502       .  S
C1669      C2146   1.484       .  S
C1670      C2194   1.487       .  S
O1671      C1681   1.264       .  A
O1671      V1679   1.904       .  S
O1672      C1682   1.266       .  A
O1673      C1683   1.263       .  A
O1673      V1679   1.895       .  S
O1674      C1684   1.262       .  A
O1674      V1679   1.898       .  S
O1675      V1680   1.900       .  S
O1676      V1680   1.903       .  S
O1677      C1682   1.265       .  A
O1677      V1680   1.905       .  S
O1678      C1681   1.266       .  A
C1681      C2114   1.502       .  S
C1682      C2101   1.489       .  S
C1683      C2133   1.484       .  S
C1684      C2085   1.483       .  S
O1685      C1695   1.265       .  A
O1685      V1693   1.903       .  S
O1686      C1696   1.264       .  A
O1687      C1697   1.266       .  A
O1687      V1693   1.899       .  S
O1688      C1698   1.263       .  A
O1688      V1693   1.899       .  S
O1689      V1694   1.901       .  S
O1690      V1694   1.905       .  S
O1691      C1696   1.266       .  A
O1691      V1694   1.901       .  S
O1692      C1695   1.265       .  A
C1695      C2098   1.486       .  S
C1696      C2117   1.501       .  S
O1699      C1709   1.264       .  A
O1699      V1707   1.903       .  S
O1700      C1710   1.265       .  A
O1700      V1707   1.903       .  S
O1701      C1711   1.263       .  A
O1701      V1707   1.895       .  S
O1702      C1712   1.262       .  A
O1702      V1707   1.896       .  S
O1703      C1712   1.266       .  A
O1703      V1708   1.904       .  S
O1704      C1711   1.263       .  A
O1704      V1708   1.900       .  S
O1705      C1710   1.263       .  A
O1705      V1708   1.898       .  S
O1706      C1709   1.266       .  A
O1706      V1708   1.901       .  S
V1707      V1708   2.083       .  T
C1709      C2181   1.502       .  S
C1710      C2162   1.483       .  S
C1711      C2018   1.477       .  S
C1712      C2034   1.486       .  S
O1714      V1721   1.905       .  S
O1715      C1725   1.263       .  A
O1715      V1721   1.898       .  S
O1716      C1726   1.264       .  A
O1716      V1721   1.896   1_554  S
O1717      V1722   1.906       .  S
O1718      V1722   1.907   1_556  S
O1719      C1724   1.261       .  A
O1720      C1723   1.264       .  A
O1720      V1722   1.894       .  S
C1723      C1973   1.481       .  S
C1724      C1989   1.488       .  S
C1725      C2002   1.474       .  S
C1726      C2197   1.489       .  S
O1727      C1737   1.263       .  A
O1727      V1735   1.899       .  S
O1728      C1738   1.263       .  A
O1728      V1735   1.899   1_554  S
O1729      C1739   1.262       .  A
O1729      V1735   1.896       .  S
O1730      C1740   1.265   1_556  A
O1731      C1740   1.261   1_556  A
O1731      V1736   1.893       .  S
O1732      C1739   1.265       .  A
O1733      V1736   1.894   1_554  S
O1734      V1736   1.895       .  S
C1737      C1957   1.495       .  S
C1738      C2130   1.488       .  S
C1739      C1941   1.489       .  S
C1740      C1925   1.479       .  S
O1741      C1751   1.261       .  A
O1741      V1749   1.892       .  S
O1742      C1752   1.264       .  A
O1742      V1749   1.888       .  S
O1743      C1753   1.265       .  A
O1743      V1749   1.903   1_556  S
O1744      C1754   1.264       .  A
O1744      V1749   1.903       .  S
O1745      V1750   1.892       .  S
O1746      V1750   1.893   1_556  S
O1747      V1750   1.900       .  S
O1748      V1750   1.899       .  S
C1751      C1970   1.483       .  S
C1752      C1986   1.488       .  S
C1753      C1906   1.472       .  S
C1754      C2069   1.492       .  S
O1755      C1765   1.261   1_556  A
O1755      V1763   1.892   1_556  S
O1756      C1766   1.264       .  A
O1756      V1763   1.891       .  S
O1757      C1767   1.265       .  A
O1757      V1763   1.905       .  S
O1758      C1768   1.265       .  A
O1758      V1763   1.904   1_556  S
O1759      C1768   1.261       .  A
O1759      V1764   1.895   1_556  S
O1760      C1767   1.265       .  A
O1760      V1764   1.895       .  S
O1761      C1766   1.264   1_556  A
O1761      V1764   1.899   1_556  S
O1762      C1765   1.265       .  A
O1762      V1764   1.898       .  S
V1763      V1764   2.084       .  T
C1765      C1922   1.480       .  S
C1766      C1938   1.489   1_554  S
C1767      C2037   1.492       .  S
C1768      C1890   1.470       .  S
O1769      C1779   1.267       .  A
O1770      C1780   1.265       .  A
O1770      V1777   1.898       .  S
O1771      C1781   1.262       .  A
O1771      V1777   1.896       .  S
O1772      C1782   1.262       .  A
O1772      V1777   1.894       .  S
O1773      V1778   1.903       .  S
O1774      V1778   1.905       .  S
O1776      V1778   1.901       .  S
C1779      C1861   1.500       .  S
C1780      C1874   1.486       .  S
C1781      C2005   1.496       .  S
C1782      C2149   1.477       .  S
O1783      V1791   1.908       .  S
O1784      V1791   1.908       .  S
O1785      C1795   1.262       .  A
O1785      V1791   1.896       .  S
O1786      C1796   1.263       .  A
O1786      V1791   1.899       .  S
O1787      V1792   1.903       .  S
O1788      V1792   1.903       .  S
O1789      C1794   1.264       .  A
O1789      V1792   1.899       .  S
O1790      C1793   1.263       .  A
O1790      V1792   1.901       .  S
C1793      C1858   1.498       .  S
C1794      C1877   1.482       .  S
C1795      C1954   1.469       .  S
C1796      C2082   1.484       .  S
O1797      V1805   1.902       .  S
O1798      V1805   1.904       .  S
O1799      C1809   1.266       .  A
O1799      V1805   1.899       .  S
O1800      C1810   1.266       .  A
O1801      C1810   1.263       .  A
O1801      V1806   1.900       .  S
O1802      C1809   1.264       .  A
O1803      C1808   1.263   1_565  A
O1803      V1806   1.898       .  S
O1804      C1807   1.262       .  A
O1804      V1806   1.898       .  S
C1807      C1909   1.497       .  S
C1808      C2053   1.470       .  S
C1809      C1842   1.490       .  S
C1810      C1826   1.493       .  S
O1811      C1821   1.265       .  A
O1811      V1819   1.898       .  S
O1812      C1822   1.266       .  A
O1812      V1819   1.899       .  S
O1813      C1823   1.267       .  A
O1813      V1819   1.906       .  S
O1814      C1824   1.267       .  A
O1814      V1819   1.903       .  S
O1815      C1824   1.263       .  A
O1815      V1820   1.898       .  S
O1816      C1823   1.263       .  A
O1816      V1820   1.900       .  S
O1817      C1822   1.263       .  A
O1817      V1820   1.900       .  S
O1818      C1821   1.263       .  A
O1818      V1820   1.899       .  S
V1819      V1820   2.081       .  T
C1821      C1893   1.482       .  S
C1822      C2021   1.496       .  S
C1823      C1845   1.496       .  S
C1824      C1829   1.494       .  S
C1825      C1826   1.406       .  A
C1825      C1830   1.409       .  A
C1825      H1832   1.082       .  S
C1826      C1827   1.422       .  A
C1827      C1828   1.408       .  A
C1827      C1834   1.521       .  S
C1828      C1829   1.406       .  A
C1828      H1833   1.082       .  S
C1829      C1830   1.423       .  A
C1830      C1831   1.522       .  S
C1831      F1835   1.385       .  S
C1831      F1836   1.383       .  S
C1831      F1837   1.383       .  S
C1834      F1838   1.383       .  S
C1834      F1839   1.383       .  S
C1834      F1840   1.385       .  S
C1841      C1842   1.404       .  A
C1841      C1846   1.407       .  A
C1841      H1848   1.083       .  S
C1842      C1843   1.420       .  A
C1843      C1844   1.410       .  A
C1843      C1850   1.520       .  S
C1844      C1845   1.408       .  A
C1844      H1849   1.083       .  S
C1845      C1846   1.424       .  A
C1846      C1847   1.520       .  S
C1847      F1851   1.385       .  S
C1847      F1852   1.383       .  S
C1847      F1853   1.380       .  S
C1850      F1854   1.384       .  S
C1850      F1855   1.383       .  S
C1850      F1856   1.385       .  S
C1857      C1862   1.411       .  A
C1857      H1864   1.083       .  S
C1858      C1859   1.424       .  A
C1859      C1860   1.410       .  A
C1859      C1866   1.523       .  S
C1860      C1861   1.409       .  A
C1860      H1865   1.082       .  S
C1862      C1863   1.521       .  S
C1863      F1867   1.385       .  S
C1863      F1868   1.384       .  S
C1863      F1869   1.383       .  S
C1866      F1870   1.383       .  S
C1866      F1871   1.384       .  S
C1866      F1872   1.385       .  S
C1873      C1874   1.406       .  A
C1873      C1878   1.407       .  A
C1873      H1880   1.083       .  S
C1875      C1876   1.410       .  A
C1875      C1882   1.520       .  S
C1876      H1881   1.083       .  S
C1877      C1878   1.418       .  A
C1878      C1879   1.521       .  S
C1879      F1883   1.385       .  S
C1879      F1884   1.383       .  S
C1879      F1885   1.384       .  S
C1882      F1886   1.384       .  S
C1882      F1887   1.382       .  S
C1882      F1888   1.385       .  S
C1889      C1890   1.400       .  A
C1889      C1894   1.408       .  A
C1889      H1896   1.083       .  S
C1890      C1891   1.411       .  A
C1891      C1892   1.405       .  A
C1891      C1898   1.518       .  S
C1892      C1893   1.406       .  A
C1892      H1897   1.083       .  S
C1893      C1894   1.421       .  A
C1894      C1895   1.520       .  S
C1895      F1899   1.385       .  S
C1895      F1900   1.382       .  S
C1895      F1901   1.384       .  S
C1898      F1902   1.383       .  S
C1898      F1903   1.383       .  S
C1898      F1904   1.384       .  S
C1905      C1910   1.406       .  A
C1905      H1912   1.083       .  S
C1906      C1907   1.412   1_565  A
C1907      C1908   1.405       .  A
C1907      C1914   1.520       .  S
C1908      C1909   1.411   1_545  A
C1908      H1913   1.082       .  S
C1910      C1911   1.522       .  S
C1911      F1917   1.383       .  S
C1914      F1918   1.382   1_545  S
C1921      C1922   1.403       .  A
C1921      C1926   1.405       .  A
C1921      H1928   1.083       .  S
C1922      C1923   1.421   1_554  A
C1923      C1924   1.405       .  A
C1923      C1930   1.521       .  S
C1924      C1925   1.403   1_556  A
C1924      H1929   1.083       .  S
C1925      C1926   1.419       .  A
C1926      C1927   1.521       .  S
C1927      F1931   1.385       .  S
C1927      F1932   1.384       .  S
C1927      F1933   1.383       .  S
C1930      F1934   1.383       .  S
C1930      F1935   1.383       .  S
C1930      F1936   1.385       .  S
C1937      C1938   1.407       .  A
C1937      C1942   1.406       .  A
C1937      H1944   1.082       .  S
C1938      C1939   1.421   1_556  A
C1939      C1940   1.405       .  A
C1939      C1946   1.522       .  S
C1940      C1941   1.407   1_554  A
C1940      H1945   1.082       .  S
C1941      C1942   1.422       .  A
C1942      C1943   1.523       .  S
C1943      F1947   1.385       .  S
C1943      F1948   1.384   1_556  S
C1943      F1949   1.383       .  S
C1946      F1950   1.384       .  S
C1946      F1951   1.383   1_554  S
C1946      F1952   1.385       .  S
C1953      C1954   1.399   1_455  A
C1953      C1958   1.409       .  A
C1953      H1960   1.082       .  S
C1955      C1956   1.404       .  A
C1955      C1962   1.520       .  S
C1956      C1957   1.411       .  A
C1956      H1961   1.082       .  S
C1958      C1959   1.521       .  S
C1959      F1963   1.385       .  S
C1959      F1964   1.383       .  S
C1959      F1965   1.384   1_455  S
C1962      F1966   1.383       .  S
C1962      F1967   1.382       .  S
C1962      F1968   1.385       .  S
C1969      C1974   1.407       .  A
C1969      H1976   1.083       .  S
C1970      C1971   1.422   1_554  A
C1971      C1972   1.404       .  A
C1971      C1978   1.523       .  S
C1972      C1973   1.404   1_556  A
C1972      H1977   1.083       .  S
C1974      C1975   1.521       .  S
C1975      F1979   1.385       .  S
C1975      F1980   1.383       .  S
C1975      F1981   1.384       .  S
C1978      F1982   1.383       .  S
C1978      F1983   1.383   1_556  S
C1978      F1984   1.385       .  S
C1985      C1986   1.407   1_556  A
C1985      C1990   1.404       .  A
C1985      H1992   1.082       .  S
C1987      C1988   1.405       .  A
C1987      C1994   1.517       .  S
C1988      H1993   1.084       .  S
C1989      C1990   1.422   1_554  A
C1990      C1991   1.523       .  S
C1991      F1997   1.382       .  S
C1994      F1998   1.382       .  S
C2001      C2006   1.407       .  A
C2001      H2008   1.083       .  S
C2003      C2004   1.409       .  A
C2003      C2010   1.517       .  S
C2004      H2009   1.084       .  S
C2006      C2007   1.522       .  S
C2007      F2013   1.383       .  S
C2010      F2014   1.382       .  S
C2017      C2018   1.400       .  A
C2017      C2022   1.407       .  A
C2017      H2024   1.083       .  S
C2018      C2019   1.413       .  A
C2019      C2020   1.407       .  A
C2019      C2026   1.520       .  S
C2020      C2021   1.411       .  A
C2020      H2025   1.082       .  S
C2021      C2022   1.427       .  A
C2022      C2023   1.522       .  S
C2023      F2027   1.385       .  S
C2023      F2028   1.380       .  S
C2023      F2029   1.383       .  S
C2026      F2030   1.384       .  S
C2026      F2031   1.383       .  S
C2026      F2032   1.385       .  S
C2033      C2034   1.405       .  A
C2033      C2038   1.410       .  A
C2033      H2040   1.083       .  S
C2034      C2035   1.419       .  A
C2035      C2036   1.406       .  A
C2035      C2042   1.521       .  S
C2036      C2037   1.407       .  A
C2036      H2041   1.082       .  S
C2037      C2038   1.422       .  A
C2038      C2039   1.520       .  S
C2039      F2043   1.385       .  S
C2039      F2044   1.384       .  S
C2039      F2045   1.383       .  S
C2042      F2046   1.384       .  S
C2042      F2047   1.383       .  S
C2042      F2048   1.385       .  S
C2049      C2054   1.405       .  A
C2049      H2056   1.083       .  S
C2050      C2051   1.428       .  A
C2051      C2052   1.408       .  A
C2051      C2058   1.521       .  S
C2052      C2053   1.397       .  A
C2052      H2057   1.083       .  S
C2054      C2055   1.521       .  S
C2055      F2059   1.385       .  S
C2055      F2060   1.384       .  S
C2055      F2061   1.383       .  S
C2058      F2062   1.383       .  S
C2058      F2063   1.384       .  S
C2058      F2064   1.385       .  S
C2065      C2066   1.404       .  A
C2065      C2070   1.408       .  A
C2065      H2072   1.087       .  S
C2067      C2068   1.404       .  A
C2067      C2074   1.521       .  S
C2068      H2073   1.086       .  S
C2069      C2070   1.423       .  A
C2070      C2071   1.520       .  S
C2071      F2075   1.385       .  S
C2071      F2076   1.383       .  S
C2071      F2077   1.384       .  S
C2074      F2078   1.383       .  S
C2074      F2079   1.383       .  S
C2074      F2080   1.385       .  S
C2081      C2086   1.409       .  A
C2081      H2088   1.082       .  S
C2082      C2083   1.418       .  A
C2083      C2084   1.407       .  A
C2083      C2090   1.521       .  S
C2084      H2089   1.082       .  S
C2085      C2086   1.419       .  A
C2086      C2087   1.521       .  S
C2087      F2091   1.385       .  S
C2087      F2092   1.383       .  S
C2087      F2093   1.383       .  S
C2090      F2094   1.383       .  S
C2090      F2095   1.383       .  S
C2090      F2096   1.385       .  S
C2097      C2098   1.404       .  A
C2097      C2102   1.410       .  A
C2097      H2104   1.083       .  S
C2098      C2099   1.418       .  A
C2099      C2100   1.409       .  A
C2099      C2106   1.519       .  S
C2100      C2101   1.405       .  A
C2100      H2105   1.081       .  S
C2101      C2102   1.421       .  A
C2102      C2103   1.520       .  S
C2103      F2107   1.385       .  S
C2103      F2108   1.382       .  S
C2103      F2109   1.383       .  S
C2106      F2110   1.384       .  S
C2106      F2111   1.382       .  S
C2106      F2112   1.385       .  S
C2113      C2114   1.409       .  A
C2113      C2118   1.410       .  A
C2113      H2120   1.082       .  S
C2114      C2115   1.424       .  A
C2115      C2116   1.410       .  A
C2115      C2122   1.522       .  S
C2116      C2117   1.409       .  A
C2116      H2121   1.082       .  S
C2117      C2118   1.424       .  A
C2118      C2119   1.522       .  S
C2119      F2123   1.385       .  S
C2119      F2124   1.383       .  S
C2119      F2125   1.383       .  S
C2122      F2126   1.384       .  S
C2122      F2127   1.383       .  S
C2122      F2128   1.385       .  S
C2129      C2134   1.403       .  A
C2129      H2136   1.083       .  S
C2130      C2131   1.423       .  A
C2131      C2132   1.410       .  A
C2131      C2138   1.521       .  S
C2132      C2133   1.405       .  A
C2132      H2137   1.083       .  S
C2134      C2135   1.520       .  S
C2135      F2139   1.385       .  S
C2135      F2140   1.382       .  S
C2135      F2141   1.383   1_655  S
C2138      F2142   1.384       .  S
C2138      F2143   1.383       .  S
C2138      F2144   1.385       .  S
C2145      C2150   1.403       .  A
C2145      H2152   1.082       .  S
C2147      C2148   1.408       .  A
C2147      C2154   1.519       .  S
C2148      H2153   1.082       .  S
C2149      C2150   1.413       .  A
C2150      C2151   1.521       .  S
C2151      F2155   1.385       .  S
C2151      F2157   1.382       .  S
C2154      F2158   1.382       .  S
C2154      F2160   1.385       .  S
C2161      C2162   1.404       .  A
C2161      C2166   1.409       .  A
C2161      H2168   1.083       .  S
C2162      C2163   1.419       .  A
C2163      C2164   1.406       .  A
C2163      C2170   1.520       .  S
C2164      C2165   1.402       .  A
C2164      H2169   1.082       .  S
C2165      C2166   1.419       .  A
C2166      C2167   1.519       .  S
C2167      F2171   1.384       .  S
C2167      F2172   1.382       .  S
C2167      F2173   1.383       .  S
C2170      F2174   1.384       .  S
C2170      F2175   1.382       .  S
C2170      F2176   1.385       .  S
C2177      C2178   1.408       .  A
C2177      C2182   1.409       .  A
C2177      H2184   1.081       .  S
C2178      C2179   1.424       .  A
C2179      C2180   1.411       .  A
C2179      C2186   1.522       .  S
C2180      C2181   1.410       .  A
C2180      H2185   1.082       .  S
C2181      C2182   1.424       .  A
C2182      C2183   1.523       .  S
C2183      F2187   1.385       .  S
C2183      F2188   1.384       .  S
C2183      F2189   1.383       .  S
C2186      F2190   1.384       .  S
C2186      F2191   1.383       .  S
C2186      F2192   1.385       .  S
C2193      C2198   1.409       .  A
C2193      H2200   1.083       .  S
C2194      C2195   1.419       .  A
C2195      C2196   1.408       .  A
C2195      C2202   1.521       .  S
C2196      C2197   1.408       .  A
C2196      H2201   1.083       .  S
C2198      C2199   1.520       .  S
C2199      F2203   1.385       .  S
C2199      F2205   1.382   1_455  S
C2202      F2206   1.383       .  S
C2202      F2208   1.385       .  S
