geometry optimzed in LAMMPS
_audit_creation_date              2020-12-01 
_audit_creation_method            'lammps2cif' 
_symmetry_space_group_name_H-M    'P1' 
_symmetry_Int_Tables_number       1 
_symmetry_cell_setting            triclinic 
loop_ 
_symmetry_equiv_pos_as_xyz 
  x,y,z 
_cell_length_a                    53.55567673 
_cell_length_b                    53.57510315548673 
_cell_length_c                    26.45682511983512 
_cell_angle_alpha                 90.13755249079016 
_cell_angle_beta                  89.98965308083302 
_cell_angle_gamma                 121.02461246761939 
loop_ 
_atom_site_label 
_atom_site_type_symbol 
_atom_site_fract_x 
_atom_site_fract_y 
_atom_site_fract_z 
_atom_site_charge 
O1          O  0.25216004  0.46618687  0.94623776    -0.72900
O2          O  0.28636275  0.03086139  0.04939614    -0.73900
O3          O  0.25524684  0.46785331  0.05278409    -0.62500
O4          O  0.28187628  0.02889872  0.94300106    -0.70900
O5          O  0.23947901  0.02689430  0.94673652    -0.70500
O6          O  0.21331531  0.46676915  0.05671303    -0.61700
O7          O  0.24447898  0.02988687  0.05290349    -0.74200
O8          O  0.20979220  0.46422771  0.94997028    -0.73000
Cu9        Cu  0.27036192  0.99849538  0.99771129     1.04600
Cu10       Cu  0.22529303  0.49685270  0.00182102     1.04300
C11         C  0.22551240  0.45444729  0.93291795     0.93300
C12         C  0.27128702  0.04144222  0.06573527     0.92500
C13         C  0.22949671  0.45699410  0.07073778     0.84600
C14         C  0.26519067  0.03815761  0.92889829     0.90900
N15         N  0.17864739  0.28964328  0.80439813    -0.27200
N16         N  0.20420057  0.31378920  0.81067454    -0.35100
C17         C  0.22509528  0.30920365  0.79274200     0.01100
C18         C  0.21192735  0.28085289  0.77437778     0.07100
C19         C  0.18251028  0.26915688  0.78272438    -0.06000
H20         H  0.24785374  0.32588701  0.78965806     0.07800
H21         H  0.16497269  0.24826279  0.76959572     0.09000
Cu22       Cu  0.20825795  0.35284807  0.83632753     0.44200
Cu23       Cu  0.13927741  0.28736866  0.81348617     0.42000
Cu24       Cu  0.14074388  0.35455809  0.83163455     0.43900
N25         N  0.20450220  0.38801004  0.86142590    -0.34600
N26         N  0.18002712  0.38845441  0.85943934    -0.28900
C27         C  0.18415853  0.41279041  0.88234063    -0.05000
C28         C  0.21260009  0.42859650  0.89952001     0.07200
C29         C  0.22487327  0.41226441  0.88547856     0.01000
H30         H  0.16727681  0.41784018  0.88827328     0.08700
H31         H  0.24657403  0.41689841  0.89455472     0.07800
N32         N  0.10315254  0.31561088  0.81295225    -0.36100
N33         N  0.10272071  0.29081403  0.80862679    -0.28200
C34         C  0.07511353  0.26891745  0.80246587    -0.03500
C35         C  0.05720774  0.28041532  0.80239372     0.05100
C36         C  0.07568374  0.31010650  0.80920523     0.03200
H37         H  0.06841980  0.24611858  0.80052874     0.08300
H38         H  0.06940285  0.32618253  0.81500679     0.07200
N39         N  0.30960594  0.20356266  0.80839802    -0.27200
N40         N  0.28405368  0.17897873  0.81013863    -0.35100
C41         C  0.26384865  0.18388972  0.78975350     0.01100
C42         C  0.27746529  0.21287808  0.77472025     0.07100
C43         C  0.30637963  0.22455964  0.78743230    -0.06000
H44         H  0.24137383  0.16719758  0.78319482     0.07800
H45         H  0.32424820  0.24610460  0.77819186     0.09000
Cu46       Cu  0.27914616  0.13920103  0.83453247     0.44200
Cu47       Cu  0.34910383  0.20714029  0.82398589     0.42000
Cu48       Cu  0.34820938  0.14102369  0.84069676     0.43900
N49         N  0.28332816  0.10395910  0.85843332    -0.34600
N50         N  0.30850247  0.10487670  0.85831658    -0.28900
C51         C  0.30508979  0.08056542  0.87955545    -0.05000
C52         C  0.27645791  0.06331212  0.89443671     0.07200
C53         C  0.26317552  0.07874912  0.88033794     0.01000
H54         H  0.32277358  0.07696689  0.88762290     0.08700
H55         H  0.24106385  0.07304516  0.88869678     0.07800
N56         N  0.38635119  0.18079429  0.83490047    -0.36100
N57         N  0.38665420  0.20540121  0.82904012    -0.28200
C58         C  0.41437650  0.22741506  0.82485190    -0.03500
C59         C  0.43244905  0.21613735  0.82898378     0.05100
C60         C  0.41388575  0.18645227  0.83522450     0.03200
H61         H  0.42086629  0.24990280  0.81847379     0.08300
H62         H  0.41977025  0.16994458  0.83771529     0.07200
O63         O  0.46910692  0.25771511  0.38879046    -0.72900
O64         O  0.03297575  0.28712039  0.28472270    -0.73900
O65         O  0.47005999  0.25601275  0.28181764    -0.62500
O66         O  0.03216603  0.28736087  0.39128603    -0.70900
O67         O  0.02970273  0.24474762  0.39342035    -0.70500
O68         O  0.46898043  0.21406893  0.28348193    -0.61700
O69         O  0.03195787  0.24520656  0.28720579    -0.74200
O70         O  0.46681963  0.21518671  0.39044372    -0.73000
Cu71       Cu  0.00109584  0.27349703  0.33659261     1.04600
Cu72       Cu  0.49923683  0.22831686  0.33869752     1.04300
C73         C  0.45728194  0.23160669  0.40493031     0.93300
C74         C  0.04342512  0.27142977  0.27129878     0.92500
C75         C  0.45927258  0.22972345  0.26638643     0.84600
C76         C  0.04149436  0.27118702  0.40797233     0.90900
N77         N  0.29533912  0.11077618  0.12875166    -0.27200
N78         N  0.31949993  0.10985225  0.13251770    -0.35100
C79         C  0.31423880  0.08419120  0.11323518     0.01100
C80         C  0.28540833  0.06826088  0.09698910     0.07100
C81         C  0.27423465  0.08589242  0.10759118    -0.06000
H82         H  0.33054642  0.07816513  0.10902845     0.07800
H83         H  0.25284927  0.08179643  0.09745719     0.09000
Cu84       Cu  0.35908572  0.14505806  0.16028226     0.44200
Cu85       Cu  0.29271167  0.14733234  0.14444602     0.42000
Cu86       Cu  0.36057257  0.21366465  0.16668630     0.43900
N87         N  0.39444068  0.18412126  0.18932397    -0.34600
N88         N  0.39485478  0.20903759  0.19001078    -0.28900
C89         C  0.41881428  0.22933294  0.21460255    -0.05000
C90         C  0.43443931  0.21682982  0.23062244     0.07200
C91         C  0.41837388  0.18811602  0.21381727     0.01000
H92         H  0.42340195  0.25105516  0.22335867     0.08700
H93         H  0.42285343  0.17098078  0.22153206     0.07800
N94         N  0.32148683  0.21221120  0.15727878    -0.36100
N95         N  0.29629194  0.18764704  0.15146038    -0.28200
C96         C  0.27473850  0.19355705  0.15180622    -0.03500
C97         C  0.28702096  0.22334052  0.15761675     0.05100
C98         C  0.31671358  0.23445328  0.16111853     0.03200
H99         H  0.25182493  0.17734988  0.14898080     0.08300
H100        H  0.33345798  0.25673245  0.16887548     0.07200
N101        N  0.21080695  0.39220539  0.14453551    -0.27200
N102        N  0.18578463  0.39156631  0.14650718    -0.35100
C103        C  0.18918337  0.41549033  0.12319244     0.01100
C104        C  0.21762211  0.43191084  0.10567597     0.07100
C105        C  0.23063797  0.41642375  0.11999337    -0.06000
H106        H  0.17177716  0.41976322  0.11682834     0.07800
H107        H  0.25241051  0.42144186  0.11050096     0.09000
Cu108      Cu  0.14713420  0.35634734  0.17575926     0.44200
Cu109      Cu  0.21593811  0.35815219  0.16843394     0.42000
Cu110      Cu  0.14943976  0.29093758  0.19798448     0.43900
N111        N  0.11175231  0.31749251  0.20405194    -0.34600
N112        N  0.11266886  0.29349604  0.21045893    -0.28900
C113        C  0.08770632  0.27293404  0.23200588    -0.05000
C114        C  0.07006305  0.28437929  0.23999012     0.07200
C115        C  0.08602987  0.31272663  0.22182928     0.01000
H116        H  0.08362380  0.25190241  0.24437155     0.08700
H117        H  0.08007228  0.32916376  0.22404171     0.07800
N118        N  0.18971849  0.29449105  0.19308276    -0.36100
N119        N  0.21417664  0.31923614  0.18387868    -0.28200
C120        C  0.23615599  0.31403823  0.18158372    -0.03500
C121        C  0.22511407  0.28453586  0.18954089     0.05100
C122        C  0.19546796  0.27290749  0.19667798     0.03200
H123        H  0.25850773  0.33052911  0.17284356     0.08300
H124        H  0.17887617  0.25027546  0.20126053     0.07200
O125        O  0.21133938  0.24362195  0.61719408    -0.72900
O126        O  0.23978653  0.21130751  0.72461030    -0.73900
O127        O  0.20928225  0.24260026  0.72364856    -0.62500
O128        O  0.24365559  0.21407291  0.61831747    -0.70900
O129        O  0.28512235  0.25671723  0.62098032    -0.70500
O130        O  0.25160887  0.28434405  0.72798640    -0.61700
O131        O  0.28215436  0.25306106  0.72743935    -0.74200
O132        O  0.25277301  0.28623590  0.62126614    -0.73000
Cu133      Cu  0.22456970  0.22644628  0.67078686     1.04600
Cu134      Cu  0.26936316  0.27156828  0.67457112     1.04300
C135        C  0.22694130  0.27017408  0.60364409     0.93300
C136        C  0.26574639  0.22655449  0.74147784     0.92500
C137        C  0.22501212  0.26846643  0.74124955     0.84600
C138        C  0.27016885  0.23067389  0.60436991     0.90900
N139        N  0.29391608  0.18681002  0.53976544    -0.27200
N140        N  0.31799026  0.21259469  0.53510715    -0.35100
C141        C  0.31278391  0.23286057  0.55451530     0.01100
C142        C  0.28409873  0.21894748  0.57166527     0.07100
C143        C  0.27297055  0.18986249  0.56141379    -0.06000
H144        H  0.32906218  0.25569250  0.55858676     0.07800
H145        H  0.25189648  0.17187418  0.57265798     0.09000
Cu146      Cu  0.35726619  0.21749922  0.50675735     0.44200
Cu147      Cu  0.29101005  0.14757410  0.52671037     0.42000
Cu148      Cu  0.35718520  0.14911941  0.50495711     0.43900
N149        N  0.39186088  0.21316384  0.47845426    -0.34600
N150        N  0.39158857  0.18831525  0.47963121    -0.28900
C151        C  0.41536337  0.19163949  0.45604691    -0.05000
C152        C  0.43167667  0.21991046  0.43880718     0.07200
C153        C  0.41615149  0.23301231  0.45371001     0.01000
H154        H  0.41955884  0.17421704  0.44938360     0.09600
H155        H  0.42142102  0.25493619  0.44500254     0.07800
N156        N  0.31783083  0.11092828  0.51575267    -0.36100
N157        N  0.29315204  0.11042670  0.52225209    -0.28200
C158        C  0.27106442  0.08267439  0.52471106    -0.03500
C159        C  0.28239452  0.06474856  0.51895755     0.05100
C160        C  0.31216675  0.08343176  0.51383771     0.03200
H161        H  0.24856264  0.07622230  0.53071204     0.08300
H162        H  0.32842370  0.07748148  0.50766184     0.07200
N163        N  0.20692813  0.31544495  0.53320635    -0.27200
N164        N  0.18187503  0.29034389  0.53115290    -0.35100
C165        C  0.18566976  0.26978891  0.55306477     0.01100
C166        C  0.21437327  0.28271754  0.56965456     0.07100
C167        C  0.22709104  0.31162365  0.55624019    -0.06000
H168        H  0.16839778  0.24754742  0.55944510     0.07800
H169        H  0.24880450  0.32908046  0.56588418     0.09000
Cu170      Cu  0.14289819  0.28652611  0.50432180     0.44200
Cu171      Cu  0.21199720  0.35515148  0.51476180     0.42000
Cu172      Cu  0.14572034  0.35545153  0.49657362     0.43900
N173        N  0.10800476  0.29081027  0.47829651    -0.34600
N174        N  0.10923998  0.31611021  0.47679756    -0.28900
C175        C  0.08492055  0.31252652  0.45484681    -0.05000
C176        C  0.06729003  0.28356380  0.44155676     0.07200
C177        C  0.08262171  0.27040901  0.45705530     0.01000
H178        H  0.08132771  0.33011052  0.44596200     0.08700
H179        H  0.07658542  0.24803042  0.45043288     0.07800
N180        N  0.18592633  0.39275916  0.50790230    -0.36100
N181        N  0.21045213  0.39277064  0.51256566    -0.28200
C182        C  0.23273451  0.42033842  0.51781239    -0.03500
C183        C  0.22166820  0.43872719  0.51674049     0.05100
C184        C  0.19185666  0.42031457  0.51019205     0.03200
H185        H  0.25516284  0.42623519  0.52107271     0.08300
H186        H  0.17557145  0.42636411  0.50723105     0.07200
C187        C  0.22492783  0.48546240  0.49579844    -0.12200
C188        C  0.23770105  0.47106065  0.51857838     0.04800
C189        C  0.26532192  0.48797072  0.54183847    -0.07500
C190        C  0.27947529  0.01838870  0.54099556    -0.08200
C191        C  0.26652299  0.03259585  0.51843397    -0.02800
C192        C  0.23884196  0.01579884  0.49581677     0.04000
N193        N  0.22502599  0.02906543  0.47062980     0.66500
H194        H  0.20406205  0.47317557  0.47667949     0.15400
H195        H  0.30055335  0.03102440  0.55944004     0.15100
N196        N  0.27880218  0.47488781  0.56864612     0.74200
O197        O  0.22940711  0.03443808  0.42399766    -0.39200
O198        O  0.20352191  0.02856264  0.49125619    -0.39200
O199        O  0.30104967  0.47596164  0.55010115    -0.39900
O200        O  0.27335043  0.46933874  0.61503850    -0.39900
C201        C  0.24690412  0.22698353  0.19691665    -0.12200
C202        C  0.27143482  0.23917319  0.16539828     0.04800
C203        C  0.28088853  0.26643099  0.14292804    -0.07500
C204        C  0.26561792  0.28074106  0.15176528    -0.08200
C205        C  0.24101166  0.26868359  0.18336194    -0.02800
C206        C  0.23189795  0.24153614  0.20662548     0.04000
N207        N  0.20853744  0.22903497  0.24225466     0.66500
H208        H  0.23978714  0.20634689  0.21538040     0.15400
H209        H  0.27283857  0.30118087  0.13261024     0.15100
N210        N  0.30505593  0.27927691  0.10895692     0.74200
O211        O  0.18441906  0.20724595  0.22929645    -0.39200
O212        O  0.21430178  0.23434103  0.28867614    -0.39200
O213        O  0.30037480  0.27552919  0.06202171    -0.39900
O214        O  0.32939349  0.29968837  0.12447444    -0.39900
C215        C  0.01264926  0.24152852  0.84352712    -0.12200
C216        C  0.02523859  0.26375781  0.80739043     0.04800
C217        C  0.00718472  0.26998827  0.77807502    -0.07500
C218        C  0.47703837  0.25428982  0.78594891    -0.08200
C219        C  0.46441106  0.23218674  0.82245386    -0.02800
C220        C  0.48254487  0.22580753  0.85143469     0.04000
N221        N  0.47107387  0.20472871  0.89104477     0.66500
H222        H  0.02639875  0.23682450  0.86684721     0.15400
H223        H  0.46335536  0.25903763  0.76256384     0.15100
N224        N  0.01888162  0.29095449  0.73832532     0.74200
O225        O  0.46817067  0.18007808  0.88380514    -0.39200
O226        O  0.47117559  0.21309732  0.93570993    -0.39200
O227        O  0.01905825  0.28248659  0.69384354    -0.39900
O228        O  0.02213871  0.31577327  0.74521913    -0.39900
O229        O  0.25215983  0.96618674  0.94623698    -0.72900
O230        O  0.28636289  0.53086148  0.04939709    -0.73900
O231        O  0.25524673  0.96785327  0.05278335    -0.62500
O232        O  0.28187651  0.52889887  0.94300201    -0.70900
O233        O  0.23947922  0.52689440  0.94673735    -0.70500
O234        O  0.21331519  0.96676909  0.05671230    -0.61700
O235        O  0.24447912  0.52988695  0.05290431    -0.74200
O236        O  0.20979200  0.96422759  0.94996950    -0.73000
Cu237      Cu  0.27036209  0.49849549  0.99771216     1.04600
Cu238      Cu  0.22529286  0.99685261  0.00182022     1.04300
C239        C  0.22551220  0.95444718  0.93291716     0.93300
C240        C  0.27128716  0.54144232  0.06573613     0.92500
C241        C  0.22949663  0.95699410  0.07073715     0.84600
C242        C  0.26519089  0.53815775  0.92889920     0.90900
N243        N  0.17864721  0.78964315  0.80439766    -0.27200
N244        N  0.20420040  0.81378908  0.81067395    -0.35100
C245        C  0.22509509  0.80920349  0.79274146     0.01100
C246        C  0.21192713  0.78085269  0.77437739     0.07100
C247        C  0.18251007  0.76915671  0.78272404    -0.06000
H248        H  0.24785353  0.82588683  0.78965742     0.07800
H249        H  0.16497243  0.74826256  0.76959545     0.09000
Cu250      Cu  0.20825781  0.85284801  0.83632671     0.44200
Cu251      Cu  0.13927723  0.78736857  0.81348565     0.42000
Cu252      Cu  0.14074381  0.85455808  0.83163339     0.43900
N253        N  0.20450207  0.88801000  0.86142497    -0.34600
N254        N  0.18002700  0.88845438  0.85943830    -0.28900
C255        C  0.18415838  0.91279036  0.88233963    -0.05000
C256        C  0.21259991  0.92859642  0.89951916     0.07200
C257        C  0.22487311  0.91226434  0.88547775     0.01000
H258        H  0.16727667  0.91784013  0.88827222     0.08700
H259        H  0.24657379  0.91689830  0.89455399     0.07800
N260        N  0.10315244  0.81561086  0.81295136    -0.36100
N261        N  0.10272055  0.79081397  0.80862618    -0.28200
C262        C  0.07511333  0.76891740  0.80246558    -0.03500
C263        C  0.05720759  0.78041533  0.80239335     0.05100
C264        C  0.07568364  0.81010654  0.80920448     0.03200
H265        H  0.06841955  0.74611853  0.80052881     0.08300
H266        H  0.06940285  0.82618253  0.81500592     0.07200
N267        N  0.30960568  0.70356248  0.80839785    -0.27200
N268        N  0.28405345  0.67897851  0.81013859    -0.35100
C269        C  0.26384837  0.68388939  0.78975335     0.01100
C270        C  0.27746493  0.71287771  0.77471992     0.07100
C271        C  0.30637925  0.72455933  0.78743198    -0.06000
H272        H  0.24137351  0.66719717  0.78319477     0.07800
H273        H  0.32424796  0.74610452  0.77819139     0.09000
Cu274      Cu  0.27914608  0.63920094  0.83453290     0.44200
Cu275      Cu  0.34910366  0.70714036  0.82398597     0.42000
Cu276      Cu  0.34820954  0.64102410  0.84069847     0.43900
N277        N  0.28332828  0.60395918  0.85843418    -0.34600
N278        N  0.30850267  0.60487697  0.85831786    -0.28900
C279        C  0.30509010  0.58056572  0.87955681    -0.05000
C280        C  0.27645814  0.56331228  0.89443768     0.07200
C281        C  0.26317564  0.57874913  0.88033862     0.01000
H282        H  0.32277376  0.57696737  0.88762449     0.08700
H283        H  0.24106394  0.57304502  0.88869708     0.07800
N284        N  0.38635125  0.68079474  0.83490202    -0.36100
N285        N  0.38665417  0.70540157  0.82904096    -0.28200
C286        C  0.41437644  0.72741542  0.82485252    -0.03500
C287        C  0.43244906  0.71613785  0.82898497     0.05100
C288        C  0.41388585  0.68645278  0.83522629     0.03200
H289        H  0.42086618  0.74990321  0.81847369     0.08300
H290        H  0.41977036  0.66994527  0.83771747     0.07200
O291        O  0.46910690  0.75771548  0.38879051    -0.72900
O292        O  0.03297573  0.78712085  0.28472280    -0.73900
O293        O  0.47006000  0.75601332  0.28181764    -0.62500
O294        O  0.03216605  0.78736120  0.39128612    -0.70900
O295        O  0.02970269  0.74474793  0.39342023    -0.70500
O296        O  0.46898042  0.71406949  0.28348174    -0.61700
O297        O  0.03195780  0.74520699  0.28720572    -0.74200
O298        O  0.46681961  0.71518708  0.39044353    -0.73000
Cu299      Cu  0.00109582  0.77349745  0.33659275     1.04600
Cu300      Cu  0.49923680  0.72831728  0.33869732     1.04300
C301        C  0.45728191  0.73160703  0.40493025     0.93300
C302        C  0.04342508  0.77143023  0.27129881     0.92500
C303        C  0.45927259  0.72972403  0.26638631     0.84600
C304        C  0.04149438  0.77118732  0.40797224     0.90900
N305        N  0.29533918  0.61077642  0.12875199    -0.27200
N306        N  0.31950003  0.60985257  0.13251806    -0.35100
C307        C  0.31423895  0.58419147  0.11323578     0.01100
C308        C  0.28540844  0.56826104  0.09698984     0.07100
C309        C  0.27423471  0.58589256  0.10759175    -0.06000
H310        H  0.33054658  0.57816546  0.10902910     0.07800
H311        H  0.25284933  0.58179650  0.09745778     0.09000
Cu312      Cu  0.35908582  0.64505854  0.16028225     0.44200
Cu313      Cu  0.29271165  0.64733259  0.14444598     0.42000
Cu314      Cu  0.36057253  0.71366506  0.16668593     0.43900
N315        N  0.39444075  0.68412183  0.18932377    -0.34600
N316        N  0.39485482  0.70903814  0.19001050    -0.28900
C317        C  0.41881429  0.72933350  0.21460229    -0.05000
C318        C  0.43443934  0.71683044  0.23062227     0.07200
C319        C  0.41837396  0.68811661  0.21381712     0.01000
H320        H  0.42340196  0.75105586  0.22335845     0.08700
H321        H  0.42285350  0.67098148  0.22153195     0.07800
N322        N  0.32148672  0.71221148  0.15727855    -0.36100
N323        N  0.29629182  0.68764727  0.15146027    -0.28200
C324        C  0.27473840  0.69355728  0.15180628    -0.03500
C325        C  0.28702079  0.72334073  0.15761680     0.05100
C326        C  0.31671341  0.73445351  0.16111839     0.03200
H327        H  0.25182458  0.67734990  0.14898097     0.08300
H328        H  0.33345784  0.75673273  0.16887535     0.07200
N329        N  0.21080710  0.89220579  0.14453599    -0.27200
N330        N  0.18578475  0.89156665  0.14650742    -0.35100
C331        C  0.18918341  0.91549051  0.12319223     0.01100
C332        C  0.21762212  0.93191099  0.10567566     0.07100
C333        C  0.23063805  0.91642404  0.11999354    -0.06000
H334        H  0.17177714  0.91976331  0.11682787     0.07800
H335        H  0.25241071  0.92144220  0.11050118     0.09000
Cu336      Cu  0.14713433  0.85634777  0.17575967     0.44200
Cu337      Cu  0.21593832  0.85815271  0.16843501     0.42000
Cu338      Cu  0.14943980  0.79093803  0.19798491     0.43900
N339        N  0.11175237  0.81749296  0.20405223    -0.34600
N340        N  0.11266888  0.79349648  0.21045920    -0.28900
C341        C  0.08770629  0.77293447  0.23200603    -0.05000
C342        C  0.07006304  0.78437975  0.23999022     0.07200
C343        C  0.08602991  0.81272713  0.22182948     0.01000
H344        H  0.08362373  0.75190283  0.24437167     0.08700
H345        H  0.08007238  0.82916417  0.22404190     0.07800
N346        N  0.18971854  0.79449147  0.19308349    -0.36100
N347        N  0.21417675  0.81923658  0.18387972    -0.28200
C348        C  0.23615606  0.81403862  0.18158481    -0.03500
C349        C  0.22511405  0.78453620  0.18954168     0.05100
C350        C  0.19546796  0.77290790  0.19667854     0.03200
H351        H  0.25850782  0.83052947  0.17284483     0.08300
H352        H  0.17887599  0.75027568  0.20126082     0.07200
O353        O  0.21133913  0.74362175  0.61719369    -0.72900
O354        O  0.23978614  0.71130712  0.72460993    -0.73900
O355        O  0.20928196  0.74260001  0.72364821    -0.62500
O356        O  0.24365517  0.71407254  0.61831705    -0.70900
O357        O  0.28512197  0.75671682  0.62097996    -0.70500
O358        O  0.25160862  0.78434376  0.72798603    -0.61700
O359        O  0.28215398  0.75306065  0.72743898    -0.74200
O360        O  0.25277282  0.78623564  0.62126579    -0.73000
Cu361      Cu  0.22456935  0.72644597  0.67078649     1.04600
Cu362      Cu  0.26936286  0.77156793  0.67457076     1.04300
C363        C  0.22694112  0.77017387  0.60364369     0.93300
C364        C  0.26574600  0.72655408  0.74147748     0.92500
C365        C  0.22501187  0.76846618  0.74124919     0.84600
C366        C  0.27016844  0.73067350  0.60436948     0.90900
N367        N  0.29391577  0.68680973  0.53976492    -0.27200
N368        N  0.31798988  0.71259444  0.53510655    -0.35100
C369        C  0.31278346  0.73286027  0.55451468     0.01100
C370        C  0.28409829  0.71894710  0.57166474     0.07100
C371        C  0.27297020  0.68986213  0.56141330    -0.06000
H372        H  0.32906166  0.75569218  0.55858611     0.07800
H373        H  0.25189613  0.67187374  0.57265764     0.09000
Cu374      Cu  0.35726588  0.71749909  0.50675687     0.44200
Cu375      Cu  0.29100999  0.64757391  0.52671003     0.42000
Cu376      Cu  0.35718536  0.64911948  0.50495727     0.43900
N377        N  0.39186073  0.71316390  0.47845406    -0.34600
N378        N  0.39158859  0.68831541  0.47963121    -0.28900
C379        C  0.41536347  0.69163974  0.45604696    -0.05000
C380        C  0.43167663  0.71991073  0.43880711     0.07200
C381        C  0.41615130  0.73301246  0.45370977     0.01000
H382        H  0.41955904  0.67421757  0.44938389     0.09600
H383        H  0.42142066  0.75493617  0.44500220     0.07800
N384        N  0.31783102  0.61092826  0.51575288    -0.36100
N385        N  0.29315219  0.61042662  0.52225205    -0.28200
C386        C  0.27106460  0.58267429  0.52471091    -0.03500
C387        C  0.28239475  0.56474851  0.51895760     0.05100
C388        C  0.31216702  0.58343174  0.51383801     0.03200
H389        H  0.24856278  0.57622215  0.53071165     0.08300
H390        H  0.32842388  0.57748153  0.50766235     0.07200
N391        N  0.20692834  0.81544492  0.53320550    -0.27200
N392        N  0.18187516  0.79034391  0.53115211    -0.35100
C393        C  0.18566974  0.76978890  0.55306416     0.01100
C394        C  0.21437322  0.78271740  0.56965404     0.07100
C395        C  0.22709111  0.81162349  0.55623949    -0.06000
H396        H  0.16839762  0.74754738  0.55944458     0.07800
H397        H  0.24880476  0.82908036  0.56588353     0.09000
Cu398      Cu  0.14289837  0.78652621  0.50432090     0.44200
Cu399      Cu  0.21199771  0.85515156  0.51476070     0.42000
Cu400      Cu  0.14572083  0.85545160  0.49657250     0.43900
N401        N  0.10800493  0.79081040  0.47829578    -0.34600
N402        N  0.10924028  0.81611039  0.47679675    -0.28900
C403        C  0.08492082  0.81252681  0.45484624    -0.05000
C404        C  0.06729015  0.78356405  0.44155645     0.07200
C405        C  0.08262176  0.77040916  0.45705487     0.01000
H406        H  0.08132810  0.83011075  0.44596148     0.08700
H407        H  0.07658537  0.74803063  0.45043259     0.07800
N408        N  0.18592679  0.89275919  0.50790122    -0.36100
N409        N  0.21045263  0.89277074  0.51256453    -0.28200
C410        C  0.23273496  0.92033856  0.51781140    -0.03500
C411        C  0.22166853  0.93872725  0.51673965     0.05100
C412        C  0.19185702  0.92031455  0.51019116     0.03200
H413        H  0.25516325  0.92623537  0.52107178     0.08300
H414        H  0.17557174  0.92636398  0.50723035     0.07200
C415        C  0.22492767  0.98546237  0.49579878    -0.12200
C416        C  0.23770122  0.97106071  0.51857787     0.04800
C417        C  0.26532222  0.98797088  0.54183749    -0.07500
C418        C  0.27947519  0.51838856  0.54099627    -0.08200
C419        C  0.26652319  0.53259580  0.51843393    -0.02800
C420        C  0.23884233  0.51579888  0.49581609     0.04000
N421        N  0.22502678  0.52906559  0.47062810     0.66500
H422        H  0.20406175  0.97317550  0.47668022     0.15400
H423        H  0.30055314  0.53102421  0.55944120     0.15100
N424        N  0.27880285  0.97488809  0.56864435     0.74200
O425        O  0.22940845  0.53443820  0.42399604    -0.39200
O426        O  0.20352257  0.52856301  0.49125350    -0.39200
O427        O  0.30105027  0.97596213  0.55009859    -0.39900
O428        O  0.27335155  0.96933900  0.61503683    -0.39900
C429        C  0.24690388  0.72698366  0.19691668    -0.12200
C430        C  0.27143464  0.73917339  0.16539845     0.04800
C431        C  0.28088844  0.76643130  0.14292853    -0.07500
C432        C  0.26561789  0.78074140  0.15176597    -0.08200
C433        C  0.24101158  0.76868387  0.18336251    -0.02800
C434        C  0.23189776  0.74153631  0.20662571     0.04000
N435        N  0.20853719  0.72903507  0.24225478     0.66500
H436        H  0.23978681  0.70634694  0.21538020     0.15400
H437        H  0.27283862  0.80118129  0.13261118     0.15100
N438        N  0.30505592  0.77927732  0.10895756     0.74200
O439        O  0.18441880  0.70724614  0.22929637    -0.39200
O440        O  0.21430147  0.73434097  0.28867632    -0.39200
O441        O  0.30037486  0.77552992  0.06202230    -0.39900
O442        O  0.32939348  0.79968863  0.12447538    -0.39900
C443        C  0.01264928  0.74152898  0.84352788    -0.12200
C444        C  0.02523846  0.76375793  0.80739056     0.04800
C445        C  0.00718450  0.76998822  0.77807508    -0.07500
C446        C  0.47703815  0.75428991  0.78594897    -0.08200
C447        C  0.46441105  0.73218720  0.82245469    -0.02800
C448        C  0.48254499  0.72580827  0.85143569     0.04000
N449        N  0.47107419  0.70472984  0.89104641     0.66500
H450        H  0.02639883  0.73682511  0.86684797     0.15400
H451        H  0.46335520  0.75903744  0.76256404     0.15100
N452        N  0.01888123  0.79095406  0.73832479     0.74200
O453        O  0.46817078  0.68007907  0.88380741    -0.39200
O454        O  0.47117639  0.71309894  0.93571139    -0.39200
O455        O  0.01905740  0.78248570  0.69384318    -0.39900
O456        O  0.02213864  0.81577301  0.74521806    -0.39900
O457        O  0.75216010  0.46618690  0.94623787    -0.72900
O458        O  0.78636276  0.03086142  0.04939628    -0.73900
O459        O  0.75524682  0.46785329  0.05278422    -0.62500
O460        O  0.78187632  0.02889873  0.94300119    -0.70900
O461        O  0.73947904  0.02689430  0.94673661    -0.70500
O462        O  0.71331527  0.46676910  0.05671307    -0.61700
O463        O  0.74447897  0.02988686  0.05290359    -0.74200
O464        O  0.70979225  0.46422771  0.94997030    -0.73000
Cu465      Cu  0.77036196  0.99849542  0.99771144     1.04600
Cu466      Cu  0.72529301  0.49685267  0.00182108     1.04300
C467        C  0.72551248  0.45444733  0.93291798     0.93300
C468        C  0.77128701  0.04144223  0.06573540     0.92500
C469        C  0.72949668  0.45699407  0.07073787     0.84600
C470        C  0.76519069  0.03815760  0.92889836     0.90900
N471        N  0.67864751  0.28964333  0.80439838    -0.27200
N472        N  0.70420070  0.31378927  0.81067469    -0.35100
C473        C  0.72509543  0.30920373  0.79274213     0.01100
C474        C  0.71192746  0.28085292  0.77437800     0.07100
C475        C  0.68251043  0.26915696  0.78272470    -0.06000
H476        H  0.74785374  0.32588700  0.78965812     0.07800
H477        H  0.66497264  0.24826261  0.76959597     0.09000
Cu478      Cu  0.70825810  0.35284817  0.83632754     0.44200
Cu479      Cu  0.63927752  0.28736870  0.81348652     0.42000
Cu480      Cu  0.64074404  0.35455818  0.83163444     0.43900
N481        N  0.70450235  0.38801015  0.86142579    -0.34600
N482        N  0.68002728  0.38845452  0.85943918    -0.28900
C483        C  0.68415867  0.41279050  0.88234048    -0.05000
C484        C  0.71260021  0.42859658  0.89951994     0.07200
C485        C  0.72487344  0.41226451  0.88547853     0.01000
H486        H  0.66727693  0.41784027  0.88827314     0.08700
H487        H  0.74657400  0.41689846  0.89455469     0.07800
N488        N  0.60315266  0.31561093  0.81295248    -0.36100
N489        N  0.60272080  0.29081406  0.80862723    -0.28200
C490        C  0.57511360  0.26891747  0.80246650    -0.03500
C491        C  0.55720783  0.28041536  0.80239425     0.05100
C492        C  0.57568385  0.31010658  0.80920551     0.03200
H493        H  0.56841986  0.24611861  0.80052952     0.08300
H494        H  0.56940303  0.32618253  0.81500685     0.07200
N495        N  0.80960597  0.20356263  0.80839821    -0.27200
N496        N  0.78405370  0.17897869  0.81013874    -0.35100
C497        C  0.76384869  0.18388971  0.78975361     0.01100
C498        C  0.77746535  0.21287808  0.77472042     0.07100
C499        C  0.80637964  0.22455959  0.78743254    -0.06000
H500        H  0.74137387  0.16719757  0.78319486     0.07800
H501        H  0.82424842  0.24610478  0.77819206     0.09000
Cu502      Cu  0.77914618  0.13920097  0.83453243     0.44200
Cu503      Cu  0.84910383  0.20714020  0.82398606     0.42000
Cu504      Cu  0.84820935  0.14102353  0.84069638     0.43900
N505        N  0.78332816  0.10395901  0.85843319    -0.34600
N506        N  0.80850244  0.10487657  0.85831632    -0.28900
C507        C  0.80508977  0.08056530  0.87955525    -0.05000
C508        C  0.77645791  0.06331207  0.89443668     0.07200
C509        C  0.76317553  0.07874907  0.88033794     0.01000
H510        H  0.82277352  0.07696676  0.88762263     0.08700
H511        H  0.74106391  0.07304517  0.88869690     0.07800
N512        N  0.88635115  0.18079413  0.83490022    -0.36100
N513        N  0.88665417  0.20540107  0.82904009    -0.28200
C514        C  0.91437647  0.22741492  0.82485188    -0.03500
C515        C  0.93244900  0.21613719  0.82898354     0.05100
C516        C  0.91388571  0.18645211  0.83522413     0.03200
H517        H  0.92086626  0.24990267  0.81847390     0.08300
H518        H  0.91977022  0.16994439  0.83771473     0.07200
O519        O  0.96910696  0.25771512  0.38879028    -0.72900
O520        O  0.53297573  0.28712041  0.28472295    -0.73900
O521        O  0.97006001  0.25601276  0.28181747    -0.62500
O522        O  0.53216597  0.28736086  0.39128629    -0.70900
O523        O  0.52970268  0.24474763  0.39342061    -0.70500
O524        O  0.96898043  0.21406893  0.28348175    -0.61700
O525        O  0.53195786  0.24520659  0.28720605    -0.74200
O526        O  0.96681967  0.21518672  0.39044353    -0.73000
Cu527      Cu  0.50109580  0.27349703  0.33659282     1.04600
Cu528      Cu  0.99923686  0.22831685  0.33869730     1.04300
C529        C  0.95728198  0.23160670  0.40493014     0.93300
C530        C  0.54342510  0.27142980  0.27129905     0.92500
C531        C  0.95927258  0.22972345  0.26638627     0.84600
C532        C  0.54149430  0.27118701  0.40797261     0.90900
N533        N  0.79533906  0.11077620  0.12875168    -0.27200
N534        N  0.81949986  0.10985227  0.13251781    -0.35100
C535        C  0.81423875  0.08419121  0.11323535     0.01100
C536        C  0.78540828  0.06826089  0.09698923     0.07100
C537        C  0.77423459  0.08589243  0.10759121    -0.06000
H538        H  0.83054637  0.07816513  0.10902868     0.07800
H539        H  0.75284923  0.08179645  0.09745716     0.09000
Cu540      Cu  0.85908564  0.14505807  0.16028233     0.44200
Cu541      Cu  0.79271162  0.14733238  0.14444589     0.42000
Cu542      Cu  0.86057252  0.21366468  0.16668630     0.43900
N543        N  0.89444062  0.18412127  0.18932397    -0.34600
N544        N  0.89485473  0.20903760  0.19001078    -0.28900
C545        C  0.91881425  0.22933295  0.21460250    -0.05000
C546        C  0.93443928  0.21682983  0.23062235     0.07200
C547        C  0.91837383  0.18811600  0.21381723     0.01000
H548        H  0.92340195  0.25105523  0.22335863     0.08700
H549        H  0.92285335  0.17098088  0.22153194     0.07800
N550        N  0.82148678  0.21221125  0.15727867    -0.36100
N551        N  0.79629190  0.18764709  0.15146023    -0.28200
C552        C  0.77473847  0.19355711  0.15180607    -0.03500
C553        C  0.78702092  0.22334057  0.15761666     0.05100
C554        C  0.81671355  0.23445336  0.16111846     0.03200
H555        H  0.75182483  0.17734990  0.14898065     0.08300
H556        H  0.83345783  0.25673236  0.16887542     0.07200
N557        N  0.71080691  0.39220539  0.14453574    -0.27200
N558        N  0.68578459  0.39156632  0.14650736    -0.35100
C559        C  0.68918333  0.41549031  0.12319254     0.01100
C560        C  0.71762207  0.43191081  0.10567608     0.07100
C561        C  0.73063792  0.41642373  0.11999357    -0.06000
H562        H  0.67177713  0.41976320  0.11682841     0.07800
H563        H  0.75241053  0.42144186  0.11050117     0.09000
Cu564      Cu  0.64713416  0.35634737  0.17575949     0.44200
Cu565      Cu  0.71593806  0.35815221  0.16843431     0.42000
Cu566      Cu  0.64943974  0.29093762  0.19798483     0.43900
N567        N  0.61175229  0.31749254  0.20405221    -0.34600
N568        N  0.61266885  0.29349609  0.21045923    -0.28900
C569        C  0.58770631  0.27293407  0.23200620    -0.05000
C570        C  0.57006303  0.28437932  0.23999040     0.07200
C571        C  0.58602983  0.31272668  0.22182955     0.01000
H572        H  0.58362381  0.25190253  0.24437183     0.08700
H573        H  0.58007228  0.32916367  0.22404193     0.07800
N574        N  0.68971846  0.29449107  0.19308319    -0.36100
N575        N  0.71417662  0.31923618  0.18387911    -0.28200
C576        C  0.73615596  0.31403826  0.18158415    -0.03500
C577        C  0.72511404  0.28453589  0.18954130     0.05100
C578        C  0.69546798  0.27290758  0.19667838     0.03200
H579        H  0.75850773  0.33052917  0.17284396     0.08300
H580        H  0.67887595  0.25027522  0.20126096     0.07200
O581        O  0.71133942  0.24362197  0.61719431    -0.72900
O582        O  0.73978661  0.21130753  0.72461047    -0.73900
O583        O  0.70928233  0.24260029  0.72364879    -0.62500
O584        O  0.74365564  0.21407292  0.61831763    -0.70900
O585        O  0.78512240  0.25671725  0.62098044    -0.70500
O586        O  0.75160896  0.28434407  0.72798658    -0.61700
O587        O  0.78215445  0.25306107  0.72743950    -0.74200
O588        O  0.75277304  0.28623592  0.62126633    -0.73000
Cu589      Cu  0.72456976  0.22644630  0.67078705     1.04600
Cu590      Cu  0.76936322  0.27156830  0.67457127     1.04300
C591        C  0.72694133  0.27017410  0.60364433     0.93300
C592        C  0.76574646  0.22655450  0.74147800     0.92500
C593        C  0.72501222  0.26846646  0.74124976     0.84600
C594        C  0.77016890  0.23067390  0.60437004     0.90900
N595        N  0.79391611  0.18681002  0.53976552    -0.27200
N596        N  0.81799028  0.21259469  0.53510716    -0.35100
C597        C  0.81278393  0.23286057  0.55451533     0.01100
C598        C  0.78409877  0.21894748  0.57166538     0.07100
C599        C  0.77297059  0.18986249  0.56141393    -0.06000
H600        H  0.82906220  0.25569250  0.55858674     0.07800
H601        H  0.75189653  0.17187418  0.57265817     0.09000
Cu602      Cu  0.85726620  0.21749920  0.50675721     0.44200
Cu603      Cu  0.79101008  0.14757410  0.52671046     0.42000
Cu604      Cu  0.85718520  0.14911938  0.50495684     0.43900
N605        N  0.89186089  0.21316382  0.47845405    -0.34600
N606        N  0.89158857  0.18831523  0.47963096    -0.28900
C607        C  0.91536338  0.19163948  0.45604666    -0.05000
C608        C  0.93167669  0.21991046  0.43880699     0.07200
C609        C  0.91615151  0.23301231  0.45370983     0.01000
H610        H  0.91955884  0.17421706  0.44938335     0.09600
H611        H  0.92142105  0.25493621  0.44500241     0.07800
N612        N  0.81783083  0.11092826  0.51575261    -0.36100
N613        N  0.79315206  0.11042669  0.52225218    -0.28200
C614        C  0.77106444  0.08267438  0.52471125    -0.03500
C615        C  0.78239451  0.06474853  0.51895766     0.05100
C616        C  0.81216676  0.08343172  0.51383765     0.03200
H617        H  0.74856265  0.07622229  0.53071235     0.08300
H618        H  0.82842359  0.07748146  0.50766169     0.07200
N619        N  0.70692807  0.31544496  0.53320667    -0.27200
N620        N  0.68187497  0.29034389  0.53115331    -0.35100
C621        C  0.68566971  0.26978893  0.55306517     0.01100
C622        C  0.71437325  0.28271756  0.56965487     0.07100
C623        C  0.72709100  0.31162367  0.55624045    -0.06000
H624        H  0.66839776  0.24754746  0.55944554     0.07800
H625        H  0.74880448  0.32908048  0.56588434     0.09000
Cu626      Cu  0.64289811  0.28652610  0.50432224     0.44200
Cu627      Cu  0.71199713  0.35515147  0.51476201     0.42000
Cu628      Cu  0.64572027  0.35545154  0.49657388     0.43900
N629        N  0.60800467  0.29081026  0.47829690    -0.34600
N630        N  0.60923990  0.31611020  0.47679791    -0.28900
C631        C  0.58492047  0.31252653  0.45484711    -0.05000
C632        C  0.56728996  0.28356379  0.44155709     0.07200
C633        C  0.58262162  0.27040900  0.45705568     0.01000
H634        H  0.58132767  0.33011042  0.44596232     0.08700
H635        H  0.57658534  0.24803044  0.45043329     0.07800
N636        N  0.68592627  0.39275917  0.50790244    -0.36100
N637        N  0.71045207  0.39277065  0.51256578    -0.28200
C638        C  0.73273446  0.42033843  0.51781250    -0.03500
C639        C  0.72166814  0.43872720  0.51674061     0.05100
C640        C  0.69185663  0.42031458  0.51019218     0.03200
H641        H  0.75516276  0.42623519  0.52107282     0.08300
H642        H  0.67557131  0.42636417  0.50723121     0.07200
C643        C  0.72492779  0.48546244  0.49579875    -0.12200
C644        C  0.73770100  0.47106066  0.51857860     0.04800
C645        C  0.76532187  0.48797071  0.54183870    -0.07500
C646        C  0.77947528  0.01838865  0.54099547    -0.08200
C647        C  0.76652297  0.03259582  0.51843404    -0.02800
C648        C  0.73884190  0.01579883  0.49581694     0.04000
N649        N  0.72502589  0.02906544  0.47063020     0.66500
H650        H  0.70406200  0.47317563  0.47667981     0.15400
H651        H  0.80055338  0.03102434  0.55943991     0.15100
N652        N  0.77880209  0.47488776  0.56864637     0.74200
O653        O  0.72940689  0.03443810  0.42399805    -0.39200
O654        O  0.70352187  0.02856266  0.49125681    -0.39200
O655        O  0.80104961  0.47596161  0.55010148    -0.39900
O656        O  0.77335025  0.46933859  0.61503870    -0.39900
C657        C  0.74690412  0.22698356  0.19691677    -0.12200
C658        C  0.77143477  0.23917323  0.16539831     0.04800
C659        C  0.78088845  0.26643103  0.14292811    -0.07500
C660        C  0.76561786  0.28074109  0.15176549    -0.08200
C661        C  0.74101163  0.26868362  0.18336222    -0.02800
C662        C  0.73189794  0.24153616  0.20662571     0.04000
N663        N  0.70853746  0.22903497  0.24225494     0.66500
H664        H  0.73978715  0.20634692  0.21538048     0.15400
H665        H  0.77283849  0.30118095  0.13261043     0.15100
N666        N  0.80505580  0.27927695  0.10895686     0.74200
O667        O  0.68441905  0.20724599  0.22929670    -0.39200
O668        O  0.71430184  0.23434094  0.28867643    -0.39200
O669        O  0.80037458  0.27552927  0.06202167    -0.39900
O670        O  0.82939339  0.29968839  0.12447431    -0.39900
C671        C  0.51264929  0.24152860  0.84352761    -0.12200
C672        C  0.52523866  0.26375789  0.80739090     0.04800
C673        C  0.50718485  0.26998840  0.77807546    -0.07500
C674        C  0.97703827  0.25428965  0.78594856    -0.08200
C675        C  0.96441100  0.23218659  0.82245351    -0.02800
C676        C  0.98254486  0.22580741  0.85143428     0.04000
N677        N  0.97107390  0.20472859  0.89104437     0.66500
H678        H  0.52639869  0.23682457  0.86684763     0.15400
H679        H  0.96335514  0.25903746  0.76256341     0.15100
N680        N  0.51888179  0.29095461  0.73832575     0.74200
O681        O  0.96817062  0.18007793  0.88380465    -0.39200
O682        O  0.97117577  0.21309722  0.93570957    -0.39200
O683        O  0.51905855  0.28248671  0.69384403    -0.39900
O684        O  0.52213881  0.31577337  0.74521945    -0.39900
O685        O  0.75215991  0.96618678  0.94623714    -0.72900
O686        O  0.78636284  0.53086146  0.04939728    -0.73900
O687        O  0.75524678  0.96785331  0.05278351    -0.62500
O688        O  0.78187653  0.52889888  0.94300217    -0.70900
O689        O  0.73947921  0.52689438  0.94673745    -0.70500
O690        O  0.71331522  0.96676910  0.05671240    -0.61700
O691        O  0.74447905  0.52988690  0.05290442    -0.74200
O692        O  0.70979207  0.96422762  0.94996959    -0.73000
Cu693      Cu  0.77036210  0.49849549  0.99771231     1.04600
Cu694      Cu  0.72529289  0.99685262  0.00182032     1.04300
C695        C  0.72551228  0.95444723  0.93291726     0.93300
C696        C  0.77128708  0.54144227  0.06573629     0.92500
C697        C  0.72949667  0.95699412  0.07073728     0.84600
C698        C  0.76519089  0.53815774  0.92889931     0.90900
N699        N  0.67864727  0.78964321  0.80439790    -0.27200
N700        N  0.70420049  0.81378915  0.81067414    -0.35100
C701        C  0.72509515  0.80920354  0.79274166     0.01100
C702        C  0.71192719  0.78085272  0.77437764     0.07100
C703        C  0.68251018  0.76915682  0.78272436    -0.06000
H704        H  0.74785365  0.82588692  0.78965758     0.07800
H705        H  0.66497229  0.74826237  0.76959561     0.09000
Cu706      Cu  0.70825792  0.85284810  0.83632679     0.44200
Cu707      Cu  0.63927731  0.78736867  0.81348591     0.42000
Cu708      Cu  0.64074394  0.85455823  0.83163329     0.43900
N709        N  0.70450219  0.88801010  0.86142498    -0.34600
N710        N  0.68002713  0.88845450  0.85943825    -0.28900
C711        C  0.68415851  0.91279046  0.88233960    -0.05000
C712        C  0.71260002  0.92859650  0.89951921     0.07200
C713        C  0.72487320  0.91226441  0.88547781     0.01000
H714        H  0.66727676  0.91784026  0.88827218     0.08700
H715        H  0.74657396  0.91689837  0.89455416     0.07800
N716        N  0.60315256  0.81561101  0.81295140    -0.36100
N717        N  0.60272064  0.79081410  0.80862638    -0.28200
C718        C  0.57511341  0.76891754  0.80246585    -0.03500
C719        C  0.55720769  0.78041548  0.80239350     0.05100
C720        C  0.57568376  0.81010672  0.80920449     0.03200
H721        H  0.56841960  0.74611862  0.80052918     0.08300
H722        H  0.56940301  0.82618266  0.81500578     0.07200
N723        N  0.80960568  0.70356247  0.80839811    -0.27200
N724        N  0.78405344  0.67897849  0.81013876    -0.35100
C725        C  0.76384839  0.68388940  0.78975349     0.01100
C726        C  0.77746497  0.71287774  0.77472012     0.07100
C727        C  0.80637928  0.72455934  0.78743225    -0.06000
H728        H  0.74137353  0.66719719  0.78319484     0.07800
H729        H  0.82424799  0.74610452  0.77819173     0.09000
Cu730      Cu  0.77914605  0.63920090  0.83453296     0.44200
Cu731      Cu  0.84910364  0.70714030  0.82398628     0.42000
Cu732      Cu  0.84820945  0.64102395  0.84069813     0.43900
N733        N  0.78332823  0.60395911  0.85843416    -0.34600
N734        N  0.80850260  0.60487686  0.85831769    -0.28900
C735        C  0.80509005  0.58056563  0.87955669    -0.05000
C736        C  0.77645811  0.56331224  0.89443773     0.07200
C737        C  0.76317561  0.57874909  0.88033874     0.01000
H738        H  0.82277369  0.57696726  0.88762426     0.08700
H739        H  0.74106395  0.57304503  0.88869733     0.07800
N740        N  0.88635117  0.68079459  0.83490192    -0.36100
N741        N  0.88665411  0.70540145  0.82904114    -0.28200
C742        C  0.91437639  0.72741534  0.82485280    -0.03500
C743        C  0.93244899  0.71613768  0.82898504     0.05100
C744        C  0.91388574  0.68645266  0.83522610     0.03200
H745        H  0.92086610  0.74990294  0.81847423     0.08300
H746        H  0.91977034  0.66994486  0.83771710     0.07200
O747        O  0.96910693  0.75771549  0.38879046    -0.72900
O748        O  0.53297576  0.78712091  0.28472299    -0.73900
O749        O  0.97005997  0.75601328  0.28181759    -0.62500
O750        O  0.53216600  0.78736119  0.39128631    -0.70900
O751        O  0.52970264  0.74474792  0.39342040    -0.70500
O752        O  0.96898037  0.71406943  0.28348174    -0.61700
O753        O  0.53195784  0.74520705  0.28720589    -0.74200
O754        O  0.96681964  0.71518709  0.39044352    -0.73000
Cu755      Cu  0.50109582  0.77349747  0.33659287     1.04600
Cu756      Cu  0.99923680  0.72831726  0.33869724     1.04300
C757        C  0.95728195  0.73160705  0.40493022     0.93300
C758        C  0.54342512  0.77143029  0.27129902     0.92500
C759        C  0.95927254  0.72972397  0.26638632     0.84600
C760        C  0.54149432  0.77118730  0.40797246     0.90900
N761        N  0.79533907  0.61077638  0.12875207    -0.27200
N762        N  0.81949989  0.60985249  0.13251831    -0.35100
C763        C  0.81423880  0.58419138  0.11323611     0.01100
C764        C  0.78540833  0.56826098  0.09699003     0.07100
C765        C  0.77423458  0.58589252  0.10759177    -0.06000
H766        H  0.83054645  0.57816534  0.10902955     0.07800
H767        H  0.75284938  0.58179652  0.09745772     0.09000
Cu768      Cu  0.85908566  0.64505844  0.16028258     0.44200
Cu769      Cu  0.79271158  0.64733260  0.14444585     0.42000
Cu770      Cu  0.86057247  0.71366502  0.16668595     0.43900
N771        N  0.89444062  0.68412173  0.18932400    -0.34600
N772        N  0.89485472  0.70903806  0.19001063    -0.28900
C773        C  0.91881422  0.72933345  0.21460234    -0.05000
C774        C  0.93443925  0.71683036  0.23062237     0.07200
C775        C  0.91837382  0.68811651  0.21381734     0.01000
H776        H  0.92340191  0.75105574  0.22335836     0.08700
H777        H  0.92285335  0.67098137  0.22153222     0.07800
N778        N  0.82148668  0.71221148  0.15727837    -0.36100
N779        N  0.79629180  0.68764731  0.15146002    -0.28200
C780        C  0.77473832  0.69355729  0.15180597    -0.03500
C781        C  0.78702079  0.72334078  0.15761654     0.05100
C782        C  0.81671342  0.73445357  0.16111822     0.03200
H783        H  0.75182485  0.67735017  0.14898069     0.08300
H784        H  0.83345773  0.75673260  0.16887521     0.07200
N785        N  0.71080716  0.89220585  0.14453625    -0.27200
N786        N  0.68578479  0.89156669  0.14650760    -0.35100
C787        C  0.68918344  0.91549053  0.12319233     0.01100
C788        C  0.71762216  0.93191102  0.10567581     0.07100
C789        C  0.73063810  0.91642410  0.11999377    -0.06000
H790        H  0.67177717  0.91976330  0.11682793     0.07800
H791        H  0.75241079  0.92144227  0.11050148     0.09000
Cu792      Cu  0.64713438  0.85634782  0.17575987     0.44200
Cu793      Cu  0.71593841  0.85815280  0.16843545     0.42000
Cu794      Cu  0.64943989  0.79093814  0.19798537     0.43900
N795        N  0.61175243  0.81749304  0.20405250    -0.34600
N796        N  0.61266896  0.79349657  0.21045956    -0.28900
C797        C  0.58770638  0.77293457  0.23200640    -0.05000
C798        C  0.57006310  0.78437982  0.23999049     0.07200
C799        C  0.58602996  0.81272720  0.22182969     0.01000
H800        H  0.58362383  0.75190292  0.24437211     0.08700
H801        H  0.58007241  0.82916421  0.22404202     0.07800
N802        N  0.68971863  0.79449159  0.19308398    -0.36100
N803        N  0.71417683  0.81923668  0.18388023    -0.28200
C804        C  0.73615618  0.81403872  0.18158528    -0.03500
C805        C  0.72511413  0.78453628  0.18954209     0.05100
C806        C  0.69546802  0.77290795  0.19667899     0.03200
H807        H  0.75850780  0.83052949  0.17284532     0.08300
H808        H  0.67887621  0.75027598  0.20126115     0.07200
O809        O  0.71133914  0.74362177  0.61719396    -0.72900
O810        O  0.73978619  0.71130716  0.72461014    -0.73900
O811        O  0.70928201  0.74260004  0.72364848    -0.62500
O812        O  0.74365522  0.71407259  0.61831725    -0.70900
O813        O  0.78512201  0.75671688  0.62098013    -0.70500
O814        O  0.75160867  0.78434379  0.72798626    -0.61700
O815        O  0.78215404  0.75306069  0.72743917    -0.74200
O816        O  0.75277282  0.78623567  0.62126602    -0.73000
Cu817      Cu  0.72456939  0.72644601  0.67078672     1.04600
Cu818      Cu  0.76936289  0.77156797  0.67457097     1.04300
C819        C  0.72694111  0.77017390  0.60364397     0.93300
C820        C  0.76574605  0.72655412  0.74147768     0.92500
C821        C  0.72501192  0.76846621  0.74124944     0.84600
C822        C  0.77016848  0.73067356  0.60436966     0.90900
N823        N  0.79391583  0.68680980  0.53976509    -0.27200
N824        N  0.81798992  0.71259449  0.53510665    -0.35100
C825        C  0.81278352  0.73286038  0.55451477     0.01100
C826        C  0.78409834  0.71894716  0.57166490     0.07100
C827        C  0.77297025  0.68986218  0.56141352    -0.06000
H828        H  0.82906156  0.75569208  0.55858610     0.07800
H829        H  0.75189626  0.67187385  0.57265788     0.09000
Cu830      Cu  0.85726591  0.71749914  0.50675687     0.44200
Cu831      Cu  0.79101006  0.64757397  0.52671029     0.42000
Cu832      Cu  0.85718539  0.64911950  0.50495729     0.43900
N833        N  0.89186075  0.71316393  0.47845402    -0.34600
N834        N  0.89158861  0.68831544  0.47963118    -0.28900
C835        C  0.91536349  0.69163977  0.45604695    -0.05000
C836        C  0.93167666  0.71991075  0.43880709     0.07200
C837        C  0.91615133  0.73301247  0.45370974     0.01000
H838        H  0.91955907  0.67421757  0.44938388     0.09600
H839        H  0.92142071  0.75493627  0.44500213     0.07800
N840        N  0.81783106  0.61092828  0.51575310    -0.36100
N841        N  0.79315224  0.61042666  0.52225237    -0.28200
C842        C  0.77106465  0.58267434  0.52471133    -0.03500
C843        C  0.78239476  0.56474853  0.51895798     0.05100
C844        C  0.81216703  0.58343175  0.51383827     0.03200
H845        H  0.74856280  0.57622221  0.53071214     0.08300
H846        H  0.82842390  0.57748151  0.50766252     0.07200
N847        N  0.70692824  0.81544489  0.53320577    -0.27200
N848        N  0.68187505  0.79034388  0.53115252    -0.35100
C849        C  0.68566966  0.76978889  0.55306461     0.01100
C850        C  0.71437316  0.78271741  0.56965437     0.07100
C851        C  0.72709104  0.81162349  0.55623972    -0.06000
H852        H  0.66839755  0.74754739  0.55944511     0.07800
H853        H  0.74880468  0.82908032  0.56588361     0.09000
Cu854      Cu  0.64289824  0.78652615  0.50432135     0.44200
Cu855      Cu  0.71199760  0.85515150  0.51476078     0.42000
Cu856      Cu  0.64572072  0.85545157  0.49657276     0.43900
N857        N  0.60800480  0.79081035  0.47829618    -0.34600
N858        N  0.60924017  0.81611034  0.47679711    -0.28900
C859        C  0.58492072  0.81252678  0.45484654    -0.05000
C860        C  0.56729005  0.78356401  0.44155675     0.07200
C861        C  0.58262164  0.77040912  0.45705522     0.01000
H862        H  0.58132802  0.83011069  0.44596174     0.08700
H863        H  0.57658524  0.74803054  0.45043294     0.07800
N864        N  0.68592671  0.89275915  0.50790123    -0.36100
N865        N  0.71045255  0.89277070  0.51256447    -0.28200
C866        C  0.73273490  0.92033850  0.51781123    -0.03500
C867        C  0.72166848  0.93872722  0.51673951     0.05100
C868        C  0.69185698  0.92031452  0.51019114     0.03200
H869        H  0.75516320  0.92623531  0.52107157     0.08300
H870        H  0.67557158  0.92636400  0.50723038     0.07200
C871        C  0.72492760  0.98546235  0.49579885    -0.12200
C872        C  0.73770118  0.97106068  0.51857779     0.04800
C873        C  0.76532220  0.98797083  0.54183734    -0.07500
C874        C  0.77947516  0.51838855  0.54099655    -0.08200
C875        C  0.76652318  0.53259582  0.51843428    -0.02800
C876        C  0.73884230  0.51579893  0.49581648     0.04000
N877        N  0.72502674  0.52906567  0.47062864     0.66500
H878        H  0.70406171  0.97317552  0.47668040     0.15400
H879        H  0.80055315  0.53102420  0.55944151     0.15100
N880        N  0.77880283  0.97488801  0.56864412     0.74200
O881        O  0.72940841  0.53443837  0.42399660    -0.39200
O882        O  0.70352253  0.52856305  0.49125412    -0.39200
O883        O  0.80105030  0.97596212  0.55009840    -0.39900
O884        O  0.77335144  0.96933875  0.61503654    -0.39900
C885        C  0.74690389  0.72698369  0.19691654    -0.12200
C886        C  0.77143465  0.73917344  0.16539833     0.04800
C887        C  0.78088849  0.76643141  0.14292861    -0.07500
C888        C  0.76561795  0.78074150  0.15176623    -0.08200
C889        C  0.74101164  0.76868395  0.18336275    -0.02800
C890        C  0.73189779  0.74153633  0.20662577     0.04000
N891        N  0.70853724  0.72903505  0.24225487     0.66500
H892        H  0.73978677  0.70634683  0.21538002     0.15400
H893        H  0.77283874  0.80118154  0.13261147     0.15100
N894        N  0.80505599  0.77927750  0.10895770     0.74200
O895        O  0.68441881  0.70724619  0.22929637    -0.39200
O896        O  0.71430156  0.73434079  0.28867642    -0.39200
O897        O  0.80037496  0.77553020  0.06202241    -0.39900
O898        O  0.82939353  0.79968879  0.12447562    -0.39900
C899        C  0.51264940  0.74152920  0.84352816    -0.12200
C900        C  0.52523855  0.76375811  0.80739067     0.04800
C901        C  0.50718462  0.76998835  0.77807507    -0.07500
C902        C  0.97703808  0.75428976  0.78594912    -0.08200
C903        C  0.96441096  0.73218703  0.82245467    -0.02800
C904        C  0.98254492  0.72580803  0.85143554     0.04000
N905        N  0.97107412  0.70472954  0.89104616     0.66500
H906        H  0.52639875  0.73682544  0.86684803     0.15400
H907        H  0.96335491  0.75903741  0.76256393     0.15100
N908        N  0.51888137  0.79095414  0.73832469     0.74200
O909        O  0.96817065  0.68007877  0.88380698    -0.39200
O910        O  0.97117639  0.71309859  0.93571121    -0.39200
O911        O  0.51905760  0.78248573  0.69384315    -0.39900
O912        O  0.52213873  0.81577309  0.74521778    -0.39900
loop_ 
_geom_bond_atom_site_label_1 
_geom_bond_atom_site_label_2 
_geom_bond_distance 
_geom_bond_site_symmetry_2 
_ccdc_geom_bond_type 
O1           C11   1.277       .  A
O1         Cu237   2.013       .  S
O2           C12   1.277       .  A
O2           Cu9   2.017   1_544  S
O3           C13   1.281       .  A
O3         Cu237   2.028   1_554  S
O4           C14   1.281       .  A
O4           Cu9   2.026   1_545  S
O5           C14   1.276       .  A
O5         Cu238   2.010   1_546  S
O6           C13   1.277       .  A
O6          Cu10   2.016       .  S
O7           C12   1.282       .  A
O7         Cu238   2.032   1_545  S
O8           C11   1.281       .  A
O8          Cu10   2.030   1_556  S
Cu9         O229   2.013       .  S
Cu9         O231   2.028   1_556  S
Cu9        Cu238   2.372   1_556  S
Cu10        O233   2.010   1_554  S
Cu10        O235   2.032       .  S
Cu10       Cu237   2.372   1_554  S
C11          C28   1.478       .  S
C12          C80   1.481       .  S
C13         C104   1.480       .  S
C14          C52   1.476       .  S
N15          N16   1.322       .  A
N15          C19   1.344       .  A
N15         Cu23   2.062       .  S
N16          C17   1.349       .  A
N16         Cu22   2.100       .  S
C17          C18   1.390       .  A
C17          H20   1.081       .  S
C18         C137   1.475       .  S
C18          C19   1.381       .  A
C19          H21   1.082       .  S
Cu22         N25   2.101       .  S
Cu23         N33   2.063       .  S
Cu24         N26   2.079       .  S
Cu24         N32   2.078       .  S
N25          N26   1.324       .  A
N25          C29   1.349       .  A
N26          C27   1.347       .  A
C27          C28   1.383       .  A
C27          H30   1.080       .  S
C28          C29   1.388       .  A
C29          H31   1.083       .  S
N32          N33   1.321       .  A
N32          C36   1.347       .  A
N33          C34   1.342       .  A
C34          C35   1.381       .  A
C34          H37   1.082       .  S
C35         C216   1.473       .  S
C35          C36   1.385       .  A
C36          H38   1.085       .  S
N39          N40   1.324       .  A
N39          C43   1.344       .  A
N39         Cu47   2.065       .  S
N40          C41   1.351       .  A
N40         Cu46   2.111       .  S
C41          C42   1.392       .  A
C41          H44   1.081       .  S
C42         C136   1.477       .  S
C42          C43   1.379       .  A
C43          H45   1.082       .  S
Cu46         N49   2.111       .  S
Cu47         N57   2.065       .  S
Cu48         N50   2.061       .  S
Cu48         N56   2.062       .  S
N49          N50   1.324       .  A
N49          C53   1.351       .  A
N50          C51   1.343       .  A
C51          C52   1.379       .  A
C51          H54   1.081       .  S
C52          C53   1.392       .  A
C53          H55   1.083       .  S
N56          N57   1.320       .  A
N56          C60   1.344       .  A
N57          C58   1.343       .  A
C58          C59   1.385       .  A
C58          H61   1.082       .  S
C59         C219   1.477       .  S
C59          C60   1.384       .  A
C60          H62   1.083       .  S
O63          C73   1.277       .  A
O63        Cu527   2.017       .  S
O64          C74   1.276       .  A
O64         Cu71   2.013       .  S
O65          C75   1.282       .  A
O65        Cu527   2.032       .  S
O66          C76   1.282       .  A
O66         Cu71   2.034       .  S
O67          C76   1.276       .  A
O67        Cu528   2.012   1_455  S
O68          C75   1.277       .  A
O68         Cu72   2.016       .  S
O69          C74   1.281       .  A
O69        Cu528   2.029   1_455  S
O70          C73   1.282       .  A
O70         Cu72   2.032       .  S
Cu71        O519   2.017   1_455  S
Cu71        O521   2.032   1_455  S
Cu71       Cu528   2.372   1_455  S
Cu72        O523   2.012       .  S
Cu72        O525   2.029       .  S
Cu72       Cu527   2.372       .  S
C73         C152   1.481       .  S
C74         C114   1.478       .  S
C75          C90   1.480       .  S
C76         C176   1.480       .  S
N77          N78   1.324       .  A
N77          C81   1.346       .  A
N77         Cu85   2.076       .  S
N78          C79   1.352       .  A
N78         Cu84   2.113       .  S
C79          C80   1.392       .  A
C79          H82   1.082       .  S
C80          C81   1.382       .  A
C81          H83   1.083       .  S
Cu84         N87   2.113       .  S
Cu85         N95   2.075       .  S
Cu86         N88   2.070       .  S
Cu86         N94   2.069       .  S
N87          N88   1.324       .  A
N87          C91   1.351       .  A
N88          C89   1.346       .  A
C89          C90   1.381       .  A
C89          H92   1.083       .  S
C90          C91   1.392       .  A
C91          H93   1.082       .  S
N94          N95   1.321       .  A
N94          C98   1.345       .  A
N95          C96   1.345       .  A
C96          C97   1.385       .  A
C96          H99   1.080       .  S
C97         C202   1.479       .  S
C97          C98   1.384       .  A
C98         H100   1.080       .  S
N101        N102   1.324       .  A
N101        C105   1.348       .  A
N101       Cu109   2.080       .  S
N102        C103   1.349       .  A
N102       Cu108   2.103       .  S
C103        C104   1.389       .  A
C103        H106   1.082       .  S
C104        C105   1.384       .  A
C105        H107   1.083       .  S
Cu108       N111   2.104       .  S
Cu109       N119   2.079       .  S
Cu110       N112   2.070       .  S
Cu110       N118   2.070       .  S
N111        N112   1.323       .  A
N111        C115   1.350       .  A
N112        C113   1.346       .  A
C113        C114   1.382       .  A
C113        H116   1.083       .  S
C114        C115   1.390       .  A
C115        H117   1.082       .  S
N118        N119   1.321       .  A
N118        C122   1.345       .  A
N119        C120   1.343       .  A
C120        C121   1.389       .  A
C120        H123   1.085       .  S
C121        C205   1.489       .  S
C121        C122   1.388       .  A
C122        H124   1.079       .  S
O125        C135   1.276       .  A
O125       Cu133   2.009       .  S
O126        C136   1.276       .  A
O126       Cu133   2.009       .  S
O127        C137   1.281       .  A
O127       Cu133   2.025       .  S
O128        C138   1.282       .  A
O128       Cu133   2.026       .  S
O129        C138   1.275       .  A
O129       Cu134   2.010       .  S
O130        C137   1.276       .  A
O130       Cu134   2.009       .  S
O131        C136   1.282       .  A
O131       Cu134   2.029       .  S
O132        C135   1.282       .  A
O132       Cu134   2.030       .  S
Cu133      Cu134   2.373       .  S
C135        C166   1.477       .  S
C138        C142   1.477       .  S
N139        N140   1.323       .  A
N139        C143   1.342       .  A
N139       Cu147   2.055       .  S
N140        C141   1.353       .  A
N140       Cu146   2.118       .  S
C141        C142   1.394       .  A
C141        H144   1.081       .  S
C142        C143   1.378       .  A
C143        H145   1.082       .  S
Cu146       N149   2.119       .  S
Cu147       N157   2.055       .  S
Cu148       N150   2.067       .  S
Cu148       N156   2.066       .  S
N149        N150   1.324       .  A
N149        C153   1.352       .  A
N150        C151   1.345       .  A
C151        C152   1.380       .  A
C151        H154   1.081       .  S
C152        C153   1.393       .  A
C153        H155   1.083       .  S
N156        N157   1.319       .  A
N156        C160   1.343       .  A
N157        C158   1.342       .  A
C158        C159   1.383       .  A
C158        H161   1.081       .  S
C159        C191   1.477       .  S
C159        C160   1.385       .  A
C160        H162   1.083       .  S
N163        N164   1.323       .  A
N163        C167   1.345       .  A
N163       Cu171   2.061       .  S
N164        C165   1.351       .  A
N164       Cu170   2.113       .  S
C165        C166   1.392       .  A
C165        H168   1.081       .  S
C166        C167   1.380       .  A
C167        H169   1.082       .  S
Cu170       N173   2.112       .  S
Cu171       N181   2.060       .  S
Cu172       N174   2.070       .  S
Cu172       N180   2.069       .  S
N173        N174   1.323       .  A
N173        C177   1.351       .  A
N174        C175   1.346       .  A
C175        C176   1.382       .  A
C175        H178   1.081       .  S
C176        C177   1.392       .  A
C177        H179   1.083       .  S
N180        N181   1.319       .  A
N180        C184   1.342       .  A
N181        C182   1.344       .  A
C182        C183   1.387       .  A
C182        H185   1.076       .  S
C183        C188   1.486       .  S
C183        C184   1.389       .  A
C184        H186   1.079       .  S
C187        C188   1.405       .  A
C187        C420   1.396       .  A
C187        H194   1.085       .  S
C188        C189   1.416       .  A
C189        C418   1.399       .  A
C189        N196   1.428       .  S
C190        C191   1.401       .  A
C190        C417   1.399   1_545  A
C190        H195   1.087       .  S
C191        C192   1.410       .  A
C192        C415   1.396   1_545  A
C192        N193   1.429       .  S
N193        O197   1.262       .  A
N193        O198   1.262       .  A
N196        O200   1.262       .  A
N196        O199   1.262       .  A
C201        C202   1.402       .  A
C201        C206   1.402       .  A
C201        H208   1.084       .  S
C202        C203   1.409       .  A
C203        C204   1.399       .  A
C203        N210   1.429       .  S
C204        C205   1.406       .  A
C204        H209   1.082       .  S
C205        C206   1.416       .  A
C206        N207   1.429       .  S
N207        O211   1.262       .  A
N207        O212   1.262       .  A
N210        O214   1.262       .  A
N210        O213   1.262       .  A
C215        C216   1.402       .  A
C215        C676   1.398   1_455  A
C215        H222   1.086       .  S
C216        C217   1.408       .  A
C217        C674   1.399   1_455  A
C217        N224   1.428       .  S
C218        C219   1.404       .  A
C218        C673   1.399       .  A
C218        H223   1.085       .  S
C219        C220   1.411       .  A
C220        C671   1.398       .  A
C220        N221   1.429       .  S
N221        O225   1.262       .  A
N221        O226   1.262       .  A
N224        O228   1.262       .  A
N224        O227   1.262       .  A
O229        C239   1.277       .  A
O230        C240   1.277       .  A
O230       Cu237   2.017   1_554  S
O231        C241   1.281       .  A
O232        C242   1.281       .  A
O232       Cu237   2.026       .  S
O233        C242   1.276       .  A
O234        C241   1.277       .  A
O234       Cu238   2.016       .  S
O235        C240   1.282       .  A
O236        C239   1.281       .  A
O236       Cu238   2.030   1_556  S
C239        C256   1.478       .  S
C240        C308   1.481       .  S
C241        C332   1.480       .  S
C242        C280   1.476       .  S
N243        N244   1.322       .  A
N243        C247   1.344       .  A
N243       Cu251   2.062       .  S
N244        C245   1.349       .  A
N244       Cu250   2.100       .  S
C245        C246   1.390       .  A
C245        H248   1.081       .  S
C246        C365   1.475       .  S
C246        C247   1.381       .  A
C247        H249   1.082       .  S
Cu250       N253   2.101       .  S
Cu251       N261   2.063       .  S
Cu252       N254   2.079       .  S
Cu252       N260   2.078       .  S
N253        N254   1.324       .  A
N253        C257   1.349       .  A
N254        C255   1.347       .  A
C255        C256   1.383       .  A
C255        H258   1.080       .  S
C256        C257   1.388       .  A
C257        H259   1.083       .  S
N260        N261   1.321       .  A
N260        C264   1.347       .  A
N261        C262   1.342       .  A
C262        C263   1.381       .  A
C262        H265   1.082       .  S
C263        C444   1.473       .  S
C263        C264   1.385       .  A
C264        H266   1.085       .  S
N267        N268   1.324       .  A
N267        C271   1.344       .  A
N267       Cu275   2.065       .  S
N268        C269   1.351       .  A
N268       Cu274   2.111       .  S
C269        C270   1.392       .  A
C269        H272   1.081       .  S
C270        C364   1.477       .  S
C270        C271   1.379       .  A
C271        H273   1.082       .  S
Cu274       N277   2.111       .  S
Cu275       N285   2.065       .  S
Cu276       N278   2.061       .  S
Cu276       N284   2.062       .  S
N277        N278   1.324       .  A
N277        C281   1.351       .  A
N278        C279   1.343       .  A
C279        C280   1.379       .  A
C279        H282   1.081       .  S
C280        C281   1.392       .  A
C281        H283   1.083       .  S
N284        N285   1.320       .  A
N284        C288   1.344       .  A
N285        C286   1.343       .  A
C286        C287   1.385       .  A
C286        H289   1.082       .  S
C287        C447   1.477       .  S
C287        C288   1.384       .  A
C288        H290   1.083       .  S
O291        C301   1.277       .  A
O291       Cu755   2.017       .  S
O292        C302   1.276       .  A
O292       Cu299   2.013       .  S
O293        C303   1.282       .  A
O293       Cu755   2.032       .  S
O294        C304   1.282       .  A
O294       Cu299   2.034       .  S
O295        C304   1.276       .  A
O295       Cu756   2.012   1_455  S
O296        C303   1.277       .  A
O296       Cu300   2.016       .  S
O297        C302   1.281       .  A
O297       Cu756   2.029   1_455  S
O298        C301   1.282       .  A
O298       Cu300   2.032       .  S
Cu299       O747   2.017   1_455  S
Cu299       O749   2.032   1_455  S
Cu299      Cu756   2.372   1_455  S
Cu300       O751   2.012       .  S
Cu300       O753   2.029       .  S
Cu300      Cu755   2.372       .  S
C301        C380   1.481       .  S
C302        C342   1.478       .  S
C303        C318   1.480       .  S
C304        C404   1.480       .  S
N305        N306   1.324       .  A
N305        C309   1.346       .  A
N305       Cu313   2.076       .  S
N306        C307   1.352       .  A
N306       Cu312   2.113       .  S
C307        C308   1.392       .  A
C307        H310   1.082       .  S
C308        C309   1.382       .  A
C309        H311   1.083       .  S
Cu312       N315   2.113       .  S
Cu313       N323   2.075       .  S
Cu314       N316   2.070       .  S
Cu314       N322   2.069       .  S
N315        N316   1.324       .  A
N315        C319   1.351       .  A
N316        C317   1.346       .  A
C317        C318   1.381       .  A
C317        H320   1.083       .  S
C318        C319   1.392       .  A
C319        H321   1.082       .  S
N322        N323   1.321       .  A
N322        C326   1.345       .  A
N323        C324   1.345       .  A
C324        C325   1.385       .  A
C324        H327   1.080       .  S
C325        C430   1.479       .  S
C325        C326   1.384       .  A
C326        H328   1.080       .  S
N329        N330   1.324       .  A
N329        C333   1.348       .  A
N329       Cu337   2.080       .  S
N330        C331   1.349       .  A
N330       Cu336   2.103       .  S
C331        C332   1.389       .  A
C331        H334   1.082       .  S
C332        C333   1.384       .  A
C333        H335   1.083       .  S
Cu336       N339   2.104       .  S
Cu337       N347   2.079       .  S
Cu338       N340   2.070       .  S
Cu338       N346   2.070       .  S
N339        N340   1.323       .  A
N339        C343   1.350       .  A
N340        C341   1.346       .  A
C341        C342   1.382       .  A
C341        H344   1.083       .  S
C342        C343   1.390       .  A
C343        H345   1.082       .  S
N346        N347   1.321       .  A
N346        C350   1.345       .  A
N347        C348   1.343       .  A
C348        C349   1.389       .  A
C348        H351   1.085       .  S
C349        C433   1.489       .  S
C349        C350   1.388       .  A
C350        H352   1.079       .  S
O353        C363   1.276       .  A
O353       Cu361   2.009       .  S
O354        C364   1.276       .  A
O354       Cu361   2.009       .  S
O355        C365   1.281       .  A
O355       Cu361   2.025       .  S
O356        C366   1.282       .  A
O356       Cu361   2.026       .  S
O357        C366   1.275       .  A
O357       Cu362   2.010       .  S
O358        C365   1.276       .  A
O358       Cu362   2.009       .  S
O359        C364   1.282       .  A
O359       Cu362   2.029       .  S
O360        C363   1.282       .  A
O360       Cu362   2.030       .  S
Cu361      Cu362   2.373       .  S
C363        C394   1.477       .  S
C366        C370   1.477       .  S
N367        N368   1.323       .  A
N367        C371   1.342       .  A
N367       Cu375   2.055       .  S
N368        C369   1.353       .  A
N368       Cu374   2.118       .  S
C369        C370   1.394       .  A
C369        H372   1.081       .  S
C370        C371   1.378       .  A
C371        H373   1.082       .  S
Cu374       N377   2.119       .  S
Cu375       N385   2.055       .  S
Cu376       N378   2.067       .  S
Cu376       N384   2.066       .  S
N377        N378   1.324       .  A
N377        C381   1.352       .  A
N378        C379   1.345       .  A
C379        C380   1.380       .  A
C379        H382   1.081       .  S
C380        C381   1.393       .  A
C381        H383   1.083       .  S
N384        N385   1.319       .  A
N384        C388   1.343       .  A
N385        C386   1.342       .  A
C386        C387   1.383       .  A
C386        H389   1.081       .  S
C387        C419   1.477       .  S
C387        C388   1.385       .  A
C388        H390   1.083       .  S
N391        N392   1.323       .  A
N391        C395   1.345       .  A
N391       Cu399   2.061       .  S
N392        C393   1.351       .  A
N392       Cu398   2.113       .  S
C393        C394   1.392       .  A
C393        H396   1.081       .  S
C394        C395   1.380       .  A
C395        H397   1.082       .  S
Cu398       N401   2.112       .  S
Cu399       N409   2.060       .  S
Cu400       N402   2.070       .  S
Cu400       N408   2.069       .  S
N401        N402   1.323       .  A
N401        C405   1.351       .  A
N402        C403   1.346       .  A
C403        C404   1.382       .  A
C403        H406   1.081       .  S
C404        C405   1.392       .  A
C405        H407   1.083       .  S
N408        N409   1.319       .  A
N408        C412   1.342       .  A
N409        C410   1.344       .  A
C410        C411   1.387       .  A
C410        H413   1.076       .  S
C411        C416   1.486       .  S
C411        C412   1.389       .  A
C412        H414   1.079       .  S
C415        C416   1.405       .  A
C415        H422   1.085       .  S
C416        C417   1.416       .  A
C417        N424   1.428       .  S
C418        C419   1.401       .  A
C418        H423   1.087       .  S
C419        C420   1.410       .  A
C420        N421   1.429       .  S
N421        O425   1.262       .  A
N421        O426   1.262       .  A
N424        O428   1.262       .  A
N424        O427   1.262       .  A
C429        C430   1.402       .  A
C429        C434   1.402       .  A
C429        H436   1.084       .  S
C430        C431   1.409       .  A
C431        C432   1.399       .  A
C431        N438   1.429       .  S
C432        C433   1.406       .  A
C432        H437   1.082       .  S
C433        C434   1.416       .  A
C434        N435   1.429       .  S
N435        O439   1.262       .  A
N435        O440   1.262       .  A
N438        O442   1.262       .  A
N438        O441   1.262       .  A
C443        C444   1.402       .  A
C443        C904   1.398   1_455  A
C443        H450   1.086       .  S
C444        C445   1.408       .  A
C445        C902   1.399   1_455  A
C445        N452   1.428       .  S
C446        C901   1.399       .  A
C446        C447   1.404       .  A
C446        H451   1.085       .  S
C447        C448   1.411       .  A
C448        C899   1.398       .  A
C448        N449   1.429       .  S
N449        O453   1.262       .  A
N449        O454   1.262       .  A
N452        O456   1.262       .  A
N452        O455   1.262       .  A
O457        C467   1.277       .  A
O457       Cu693   2.013       .  S
O458        C468   1.277       .  A
O458       Cu465   2.017   1_544  S
O459        C469   1.281       .  A
O459       Cu693   2.028   1_554  S
O460        C470   1.281       .  A
O460       Cu465   2.026   1_545  S
O461        C470   1.276       .  A
O461       Cu694   2.010   1_546  S
O462        C469   1.277       .  A
O462       Cu466   2.016       .  S
O463        C468   1.282       .  A
O463       Cu694   2.032   1_545  S
O464        C467   1.281       .  A
O464       Cu466   2.030   1_556  S
Cu465       O685   2.013       .  S
Cu465       O687   2.028   1_556  S
Cu465      Cu694   2.372   1_556  S
Cu466       O689   2.010   1_554  S
Cu466       O691   2.032       .  S
Cu466      Cu693   2.372   1_554  S
C467        C484   1.478       .  S
C468        C536   1.481       .  S
C469        C560   1.480       .  S
C470        C508   1.476       .  S
N471        N472   1.322       .  A
N471        C475   1.344       .  A
N471       Cu479   2.062       .  S
N472        C473   1.349       .  A
N472       Cu478   2.100       .  S
C473        C474   1.390       .  A
C473        H476   1.081       .  S
C474        C593   1.475       .  S
C474        C475   1.381       .  A
C475        H477   1.082       .  S
Cu478       N481   2.101       .  S
Cu479       N489   2.063       .  S
Cu480       N482   2.079       .  S
Cu480       N488   2.078       .  S
N481        N482   1.324       .  A
N481        C485   1.349       .  A
N482        C483   1.347       .  A
C483        C484   1.383       .  A
C483        H486   1.080       .  S
C484        C485   1.388       .  A
C485        H487   1.083       .  S
N488        N489   1.321       .  A
N488        C492   1.347       .  A
N489        C490   1.342       .  A
C490        C491   1.381       .  A
C490        H493   1.082       .  S
C491        C672   1.473       .  S
C491        C492   1.385       .  A
C492        H494   1.085       .  S
N495        N496   1.324       .  A
N495        C499   1.344       .  A
N495       Cu503   2.065       .  S
N496        C497   1.351       .  A
N496       Cu502   2.111       .  S
C497        C498   1.392       .  A
C497        H500   1.081       .  S
C498        C592   1.477       .  S
C498        C499   1.379       .  A
C499        H501   1.082       .  S
Cu502       N505   2.111       .  S
Cu503       N513   2.065       .  S
Cu504       N506   2.061       .  S
Cu504       N512   2.062       .  S
N505        N506   1.324       .  A
N505        C509   1.351       .  A
N506        C507   1.343       .  A
C507        C508   1.379       .  A
C507        H510   1.081       .  S
C508        C509   1.392       .  A
C509        H511   1.083       .  S
N512        N513   1.320       .  A
N512        C516   1.344       .  A
N513        C514   1.343       .  A
C514        C515   1.385       .  A
C514        H517   1.082       .  S
C515        C675   1.477       .  S
C515        C516   1.384       .  A
C516        H518   1.083       .  S
O519        C529   1.277       .  A
O520        C530   1.276       .  A
O520       Cu527   2.013       .  S
O521        C531   1.282       .  A
O522        C532   1.282       .  A
O522       Cu527   2.034       .  S
O523        C532   1.276       .  A
O524        C531   1.277       .  A
O524       Cu528   2.016       .  S
O525        C530   1.281       .  A
O526        C529   1.282       .  A
O526       Cu528   2.032       .  S
C529        C608   1.481       .  S
C530        C570   1.478       .  S
C531        C546   1.480       .  S
C532        C632   1.480       .  S
N533        N534   1.324       .  A
N533        C537   1.346       .  A
N533       Cu541   2.076       .  S
N534        C535   1.352       .  A
N534       Cu540   2.113       .  S
C535        C536   1.392       .  A
C535        H538   1.082       .  S
C536        C537   1.382       .  A
C537        H539   1.083       .  S
Cu540       N543   2.113       .  S
Cu541       N551   2.075       .  S
Cu542       N544   2.070       .  S
Cu542       N550   2.069       .  S
N543        N544   1.324       .  A
N543        C547   1.351       .  A
N544        C545   1.346       .  A
C545        C546   1.381       .  A
C545        H548   1.083       .  S
C546        C547   1.392       .  A
C547        H549   1.082       .  S
N550        N551   1.321       .  A
N550        C554   1.345       .  A
N551        C552   1.345       .  A
C552        C553   1.385       .  A
C552        H555   1.080       .  S
C553        C658   1.479       .  S
C553        C554   1.384       .  A
C554        H556   1.080       .  S
N557        N558   1.324       .  A
N557        C561   1.348       .  A
N557       Cu565   2.080       .  S
N558        C559   1.349       .  A
N558       Cu564   2.103       .  S
C559        C560   1.389       .  A
C559        H562   1.082       .  S
C560        C561   1.384       .  A
C561        H563   1.083       .  S
Cu564       N567   2.104       .  S
Cu565       N575   2.079       .  S
Cu566       N568   2.070       .  S
Cu566       N574   2.070       .  S
N567        N568   1.323       .  A
N567        C571   1.350       .  A
N568        C569   1.346       .  A
C569        C570   1.382       .  A
C569        H572   1.083       .  S
C570        C571   1.390       .  A
C571        H573   1.082       .  S
N574        N575   1.321       .  A
N574        C578   1.345       .  A
N575        C576   1.343       .  A
C576        C577   1.389       .  A
C576        H579   1.085       .  S
C577        C661   1.489       .  S
C577        C578   1.388       .  A
C578        H580   1.079       .  S
O581        C591   1.276       .  A
O581       Cu589   2.009       .  S
O582        C592   1.276       .  A
O582       Cu589   2.009       .  S
O583        C593   1.281       .  A
O583       Cu589   2.025       .  S
O584        C594   1.282       .  A
O584       Cu589   2.026       .  S
O585        C594   1.275       .  A
O585       Cu590   2.010       .  S
O586        C593   1.276       .  A
O586       Cu590   2.009       .  S
O587        C592   1.282       .  A
O587       Cu590   2.029       .  S
O588        C591   1.282       .  A
O588       Cu590   2.030       .  S
Cu589      Cu590   2.373       .  S
C591        C622   1.477       .  S
C594        C598   1.477       .  S
N595        N596   1.323       .  A
N595        C599   1.342       .  A
N595       Cu603   2.055       .  S
N596        C597   1.353       .  A
N596       Cu602   2.118       .  S
C597        C598   1.394       .  A
C597        H600   1.081       .  S
C598        C599   1.378       .  A
C599        H601   1.082       .  S
Cu602       N605   2.119       .  S
Cu603       N613   2.055       .  S
Cu604       N606   2.067       .  S
Cu604       N612   2.066       .  S
N605        N606   1.324       .  A
N605        C609   1.352       .  A
N606        C607   1.345       .  A
C607        C608   1.380       .  A
C607        H610   1.081       .  S
C608        C609   1.393       .  A
C609        H611   1.083       .  S
N612        N613   1.319       .  A
N612        C616   1.343       .  A
N613        C614   1.342       .  A
C614        C615   1.383       .  A
C614        H617   1.081       .  S
C615        C647   1.477       .  S
C615        C616   1.385       .  A
C616        H618   1.083       .  S
N619        N620   1.323       .  A
N619        C623   1.345       .  A
N619       Cu627   2.061       .  S
N620        C621   1.351       .  A
N620       Cu626   2.113       .  S
C621        C622   1.392       .  A
C621        H624   1.081       .  S
C622        C623   1.380       .  A
C623        H625   1.082       .  S
Cu626       N629   2.112       .  S
Cu627       N637   2.060       .  S
Cu628       N630   2.070       .  S
Cu628       N636   2.069       .  S
N629        N630   1.323       .  A
N629        C633   1.351       .  A
N630        C631   1.346       .  A
C631        C632   1.382       .  A
C631        H634   1.081       .  S
C632        C633   1.392       .  A
C633        H635   1.083       .  S
N636        N637   1.319       .  A
N636        C640   1.342       .  A
N637        C638   1.344       .  A
C638        C639   1.387       .  A
C638        H641   1.076       .  S
C639        C644   1.486       .  S
C639        C640   1.389       .  A
C640        H642   1.079       .  S
C643        C644   1.405       .  A
C643        C876   1.396       .  A
C643        H650   1.085       .  S
C644        C645   1.416       .  A
C645        C874   1.399       .  A
C645        N652   1.428       .  S
C646        C873   1.399   1_545  A
C646        C647   1.401       .  A
C646        H651   1.087       .  S
C647        C648   1.410       .  A
C648        C871   1.396   1_545  A
C648        N649   1.429       .  S
N649        O653   1.262       .  A
N649        O654   1.262       .  A
N652        O656   1.262       .  A
N652        O655   1.262       .  A
C657        C658   1.402       .  A
C657        C662   1.402       .  A
C657        H664   1.084       .  S
C658        C659   1.409       .  A
C659        C660   1.399       .  A
C659        N666   1.429       .  S
C660        C661   1.406       .  A
C660        H665   1.082       .  S
C661        C662   1.416       .  A
C662        N663   1.429       .  S
N663        O667   1.262       .  A
N663        O668   1.262       .  A
N666        O670   1.262       .  A
N666        O669   1.262       .  A
C671        C672   1.402       .  A
C671        H678   1.086       .  S
C672        C673   1.408       .  A
C673        N680   1.428       .  S
C674        C675   1.404       .  A
C674        H679   1.085       .  S
C675        C676   1.411       .  A
C676        N677   1.429       .  S
N677        O681   1.262       .  A
N677        O682   1.262       .  A
N680        O684   1.262       .  A
N680        O683   1.262       .  A
O685        C695   1.277       .  A
O686        C696   1.277       .  A
O686       Cu693   2.017   1_554  S
O687        C697   1.281       .  A
O688        C698   1.281       .  A
O688       Cu693   2.026       .  S
O689        C698   1.276       .  A
O690        C697   1.277       .  A
O690       Cu694   2.016       .  S
O691        C696   1.282       .  A
O692        C695   1.281       .  A
O692       Cu694   2.030   1_556  S
C695        C712   1.478       .  S
C696        C764   1.481       .  S
C697        C788   1.480       .  S
C698        C736   1.476       .  S
N699        N700   1.322       .  A
N699        C703   1.344       .  A
N699       Cu707   2.062       .  S
N700        C701   1.349       .  A
N700       Cu706   2.100       .  S
C701        C702   1.390       .  A
C701        H704   1.081       .  S
C702        C821   1.475       .  S
C702        C703   1.381       .  A
C703        H705   1.082       .  S
Cu706       N709   2.101       .  S
Cu707       N717   2.063       .  S
Cu708       N710   2.079       .  S
Cu708       N716   2.078       .  S
N709        N710   1.324       .  A
N709        C713   1.349       .  A
N710        C711   1.347       .  A
C711        C712   1.383       .  A
C711        H714   1.080       .  S
C712        C713   1.388       .  A
C713        H715   1.083       .  S
N716        N717   1.321       .  A
N716        C720   1.347       .  A
N717        C718   1.342       .  A
C718        C719   1.381       .  A
C718        H721   1.082       .  S
C719        C900   1.473       .  S
C719        C720   1.385       .  A
C720        H722   1.085       .  S
N723        N724   1.324       .  A
N723        C727   1.344       .  A
N723       Cu731   2.065       .  S
N724        C725   1.351       .  A
N724       Cu730   2.111       .  S
C725        C726   1.392       .  A
C725        H728   1.081       .  S
C726        C820   1.477       .  S
C726        C727   1.379       .  A
C727        H729   1.082       .  S
Cu730       N733   2.111       .  S
Cu731       N741   2.065       .  S
Cu732       N734   2.061       .  S
Cu732       N740   2.062       .  S
N733        N734   1.324       .  A
N733        C737   1.351       .  A
N734        C735   1.343       .  A
C735        C736   1.379       .  A
C735        H738   1.081       .  S
C736        C737   1.392       .  A
C737        H739   1.083       .  S
N740        N741   1.320       .  A
N740        C744   1.344       .  A
N741        C742   1.343       .  A
C742        C743   1.385       .  A
C742        H745   1.082       .  S
C743        C903   1.477       .  S
C743        C744   1.384       .  A
C744        H746   1.083       .  S
O747        C757   1.277       .  A
O748        C758   1.276       .  A
O748       Cu755   2.013       .  S
O749        C759   1.282       .  A
O750        C760   1.282       .  A
O750       Cu755   2.034       .  S
O751        C760   1.276       .  A
O752        C759   1.277       .  A
O752       Cu756   2.016       .  S
O753        C758   1.281       .  A
O754        C757   1.282       .  A
O754       Cu756   2.032       .  S
C757        C836   1.481       .  S
C758        C798   1.478       .  S
C759        C774   1.480       .  S
C760        C860   1.480       .  S
N761        N762   1.324       .  A
N761        C765   1.346       .  A
N761       Cu769   2.076       .  S
N762        C763   1.352       .  A
N762       Cu768   2.113       .  S
C763        C764   1.392       .  A
C763        H766   1.082       .  S
C764        C765   1.382       .  A
C765        H767   1.083       .  S
Cu768       N771   2.113       .  S
Cu769       N779   2.075       .  S
Cu770       N772   2.070       .  S
Cu770       N778   2.069       .  S
N771        N772   1.324       .  A
N771        C775   1.351       .  A
N772        C773   1.346       .  A
C773        C774   1.381       .  A
C773        H776   1.083       .  S
C774        C775   1.392       .  A
C775        H777   1.082       .  S
N778        N779   1.321       .  A
N778        C782   1.345       .  A
N779        C780   1.345       .  A
C780        C781   1.385       .  A
C780        H783   1.080       .  S
C781        C886   1.479       .  S
C781        C782   1.384       .  A
C782        H784   1.080       .  S
N785        N786   1.324       .  A
N785        C789   1.348       .  A
N785       Cu793   2.080       .  S
N786        C787   1.349       .  A
N786       Cu792   2.103       .  S
C787        C788   1.389       .  A
C787        H790   1.082       .  S
C788        C789   1.384       .  A
C789        H791   1.083       .  S
Cu792       N795   2.104       .  S
Cu793       N803   2.079       .  S
Cu794       N796   2.070       .  S
Cu794       N802   2.070       .  S
N795        N796   1.323       .  A
N795        C799   1.350       .  A
N796        C797   1.346       .  A
C797        C798   1.382       .  A
C797        H800   1.083       .  S
C798        C799   1.390       .  A
C799        H801   1.082       .  S
N802        N803   1.321       .  A
N802        C806   1.345       .  A
N803        C804   1.343       .  A
C804        C805   1.389       .  A
C804        H807   1.085       .  S
C805        C889   1.489       .  S
C805        C806   1.388       .  A
C806        H808   1.079       .  S
O809        C819   1.276       .  A
O809       Cu817   2.009       .  S
O810        C820   1.276       .  A
O810       Cu817   2.009       .  S
O811        C821   1.281       .  A
O811       Cu817   2.025       .  S
O812        C822   1.282       .  A
O812       Cu817   2.026       .  S
O813        C822   1.275       .  A
O813       Cu818   2.010       .  S
O814        C821   1.276       .  A
O814       Cu818   2.009       .  S
O815        C820   1.282       .  A
O815       Cu818   2.029       .  S
O816        C819   1.282       .  A
O816       Cu818   2.030       .  S
Cu817      Cu818   2.373       .  S
C819        C850   1.477       .  S
C822        C826   1.477       .  S
N823        N824   1.323       .  A
N823        C827   1.342       .  A
N823       Cu831   2.055       .  S
N824        C825   1.353       .  A
N824       Cu830   2.118       .  S
C825        C826   1.394       .  A
C825        H828   1.081       .  S
C826        C827   1.378       .  A
C827        H829   1.082       .  S
Cu830       N833   2.119       .  S
Cu831       N841   2.055       .  S
Cu832       N834   2.067       .  S
Cu832       N840   2.066       .  S
N833        N834   1.324       .  A
N833        C837   1.352       .  A
N834        C835   1.345       .  A
C835        C836   1.380       .  A
C835        H838   1.081       .  S
C836        C837   1.393       .  A
C837        H839   1.083       .  S
N840        N841   1.319       .  A
N840        C844   1.343       .  A
N841        C842   1.342       .  A
C842        C843   1.383       .  A
C842        H845   1.081       .  S
C843        C875   1.477       .  S
C843        C844   1.385       .  A
C844        H846   1.083       .  S
N847        N848   1.323       .  A
N847        C851   1.345       .  A
N847       Cu855   2.061       .  S
N848        C849   1.351       .  A
N848       Cu854   2.113       .  S
C849        C850   1.392       .  A
C849        H852   1.081       .  S
C850        C851   1.380       .  A
C851        H853   1.082       .  S
Cu854       N857   2.112       .  S
Cu855       N865   2.060       .  S
Cu856       N858   2.070       .  S
Cu856       N864   2.069       .  S
N857        N858   1.323       .  A
N857        C861   1.351       .  A
N858        C859   1.346       .  A
C859        C860   1.382       .  A
C859        H862   1.081       .  S
C860        C861   1.392       .  A
C861        H863   1.083       .  S
N864        N865   1.319       .  A
N864        C868   1.342       .  A
N865        C866   1.344       .  A
C866        C867   1.387       .  A
C866        H869   1.076       .  S
C867        C872   1.486       .  S
C867        C868   1.389       .  A
C868        H870   1.079       .  S
C871        C872   1.405       .  A
C871        H878   1.085       .  S
C872        C873   1.416       .  A
C873        N880   1.428       .  S
C874        C875   1.401       .  A
C874        H879   1.087       .  S
C875        C876   1.410       .  A
C876        N877   1.429       .  S
N877        O881   1.262       .  A
N877        O882   1.262       .  A
N880        O884   1.262       .  A
N880        O883   1.262       .  A
C885        C886   1.402       .  A
C885        C890   1.402       .  A
C885        H892   1.084       .  S
C886        C887   1.409       .  A
C887        C888   1.399       .  A
C887        N894   1.429       .  S
C888        C889   1.406       .  A
C888        H893   1.082       .  S
C889        C890   1.416       .  A
C890        N891   1.429       .  S
N891        O895   1.262       .  A
N891        O896   1.262       .  A
N894        O898   1.262       .  A
N894        O897   1.262       .  A
C899        C900   1.402       .  A
C899        H906   1.086       .  S
C900        C901   1.408       .  A
C901        N908   1.428       .  S
C902        C903   1.404       .  A
C902        H907   1.085       .  S
C903        C904   1.411       .  A
C904        N905   1.429       .  S
N905        O909   1.262       .  A
N905        O910   1.262       .  A
N908        O912   1.262       .  A
N908        O911   1.262       .  A
