geometry optimzed in LAMMPS
_audit_creation_date              2020-12-01 
_audit_creation_method            'lammps2cif' 
_symmetry_space_group_name_H-M    'P1' 
_symmetry_Int_Tables_number       1 
_symmetry_cell_setting            triclinic 
loop_ 
_symmetry_equiv_pos_as_xyz 
  x,y,z 
_cell_length_a                    30.57965333 
_cell_length_b                    30.979025463672247 
_cell_length_c                    32.43677075207354 
_cell_angle_alpha                 89.37469974060335 
_cell_angle_beta                  89.61426958810357 
_cell_angle_gamma                 119.64636683715351 
loop_ 
_atom_site_label 
_atom_site_type_symbol 
_atom_site_fract_x 
_atom_site_fract_y 
_atom_site_fract_z 
_atom_site_charge 
C1          C  0.05402328  0.95121976  0.25415527     0.80500
N2          N  0.00234985  0.92504583  0.25547097    -0.77900
C3          C  0.97478294  0.94902234  0.25714564     0.82900
N4          N  0.99904650  0.99946438  0.25602152    -0.77800
C5          C  0.05010303  0.02666816  0.25449615     0.83000
N6          N  0.07763463  0.00239542  0.25410260    -0.79500
C7          C  0.34213671  0.66705197  0.23854204     0.03400
C8          C  0.39481983  0.68856969  0.24227734    -0.12800
C9          C  0.41791408  0.65870324  0.24379427     0.00900
C10         C  0.38721124  0.60667690  0.24394351    -0.11300
C11         C  0.33447687  0.58425797  0.24145357     0.03400
C12         C  0.31244876  0.61481844  0.23781943    -0.10700
H13         H  0.41780737  0.72855841  0.24391867     0.08900
H14         H  0.40447617  0.58346092  0.24576380     0.06500
H15         H  0.27205719  0.59797091  0.23481646     0.06300
C16         C  0.76086466  0.64679680  0.01310708     0.80500
N17         N  0.71763369  0.60248275  0.02087547    -0.77900
C18         C  0.71006596  0.58077404  0.05908851     0.82900
N19         N  0.74481752  0.60282649  0.08824189    -0.77800
C20         C  0.78774823  0.64548173  0.08126059     0.83000
N21         N  0.79525358  0.66812763  0.04368098    -0.79500
Zn22       Zn  0.20475191  0.85152753  0.20708193     1.49700
Zn23       Zn  0.09106608  0.82949507  0.22649465     1.49400
Zn24       Zn  0.16420942  0.80693120  0.28696136     1.49100
Zn25       Zn  0.18082275  0.91803287  0.27393239     1.49500
O26         O  0.15938246  0.85246220  0.24848703    -1.83900
O27         O  0.16499485  0.81781665  0.15813772    -0.74500
O28         O  0.04526647  0.77691532  0.26784188    -0.74300
O29         O  0.19906999  0.76779300  0.26921996    -0.73900
O30         O  0.08601619  0.80174492  0.16627665    -0.74500
O31         O  0.24735341  0.81796402  0.21958435    -0.74100
O32         O  0.09632349  0.76405816  0.30872903    -0.74700
O33         O  0.20793554  0.91868626  0.33382423    -0.74100
O34         O  0.06798903  0.88403253  0.23114856    -0.74900
O35         O  0.20053317  0.84378218  0.33617566    -0.74300
O36         O  0.12494858  0.93970178  0.27272049    -0.74700
O37         O  0.23397916  0.96766529  0.23438962    -0.74600
O38         O  0.24679482  0.92054194  0.18943876    -0.74400
C39         C  0.12079546  0.80096850  0.14434361     0.77400
C40         C  0.05329180  0.75835646  0.30031710     0.77900
C41         C  0.23593100  0.78139588  0.24412533     0.76800
C42         C  0.21327028  0.88510045  0.35303486     0.77200
C43         C  0.08399175  0.92374587  0.25245920     0.78300
C44         C  0.25339350  0.96230836  0.20118740     0.77400
C45         C  0.34630249  0.14323591  0.00814791     0.80500
N46         N  0.32557558  0.10193007  0.03307906    -0.77900
C47         C  0.34653390  0.10231560  0.06989609     0.82900
N48         N  0.38697195  0.14390732  0.08233779    -0.77800
C49         C  0.40809144  0.18545562  0.05886905     0.83000
N50         N  0.38766310  0.18579236  0.02145965    -0.79500
C51         C  0.86592136  0.66484651  0.49253479     0.80500
N52         N  0.82461219  0.62439886  0.47654343    -0.77900
C53         C  0.82750231  0.60969796  0.43739750     0.82900
N54         N  0.87077510  0.63399275  0.41577513    -0.77800
C55         C  0.91143752  0.67259034  0.43166765     0.83000
N56         N  0.90913113  0.68877971  0.46969451    -0.79500
Zn57       Zn  0.64186271  0.29812551  0.22785859     1.49700
Zn58       Zn  0.66631551  0.35375354  0.31020204     1.49400
Zn59       Zn  0.71095420  0.41694922  0.23340933     1.49100
Zn60       Zn  0.59353112  0.36790353  0.24771642     1.49500
O61         O  0.65189440  0.35797699  0.25383901    -1.83900
O62         O  0.64018050  0.24594315  0.27046476    -0.74500
O63         O  0.72666482  0.41181333  0.33011337    -0.74300
O64         O  0.75886773  0.39714236  0.20437713    -0.73900
O65         O  0.66884509  0.29335685  0.32564177    -0.74500
O66         O  0.70255379  0.31818706  0.19208522    -0.74100
O67         O  0.73861013  0.46746494  0.28211257    -0.74700
O68         O  0.61012438  0.42559421  0.20692859    -0.74100
O69         O  0.61452484  0.35428724  0.34443056    -0.74900
O70         O  0.68693156  0.44324319  0.18707169    -0.74300
O71         O  0.56453141  0.37061201  0.30618754    -0.74700
O72         O  0.54205886  0.31355783  0.21190714    -0.74600
O73         O  0.58193649  0.27495939  0.18874452    -0.74400
C74         C  0.65576727  0.25271621  0.30773032     0.77400
C75         C  0.74219086  0.45650316  0.31973328     0.77900
C76         C  0.74592295  0.35608996  0.18613341     0.76800
C77         C  0.64675204  0.44504939  0.18095754     0.77200
C78         C  0.57768487  0.36174254  0.34145799     0.78300
C79         C  0.54604008  0.28490047  0.18608626     0.77400
Zn80       Zn  0.72534936  0.85922454  0.24584558     1.49700
Zn81       Zn  0.82253877  0.86307564  0.21032512     1.49400
Zn82       Zn  0.81702025  0.87588373  0.30477375     1.49100
Zn83       Zn  0.74081428  0.76905846  0.26649646     1.49500
O84         O  0.77642238  0.84153959  0.25727528    -1.83900
O85         O  0.72410137  0.87427133  0.18553492    -0.74500
O86         O  0.89554111  0.91412026  0.22353061    -0.74300
O87         O  0.79914086  0.92847496  0.32266568    -0.73900
O88         O  0.79172398  0.87608713  0.15879102    -0.74500
O89         O  0.73469148  0.91417252  0.28246483    -0.74100
O90         O  0.89406114  0.90605478  0.29193178    -0.74700
O91         O  0.73854235  0.75467591  0.32768369    -0.74100
O92         O  0.83010000  0.80614150  0.19618695    -0.74900
O93         O  0.79194839  0.82771186  0.35374963    -0.74300
O94         O  0.77825504  0.74033617  0.23425160    -0.74700
O95         O  0.66498537  0.73630657  0.25197009    -0.74600
O96         O  0.65504695  0.80245878  0.25581793    -0.74400
C97         C  0.75069903  0.87690943  0.15421024     0.77400
C98         C  0.91859279  0.92120265  0.25766644     0.77900
C99         C  0.76328945  0.93632050  0.31250818     0.76800
C100        C  0.75895583  0.78205058  0.35873321     0.77200
C101        C  0.81302511  0.76117626  0.20670013     0.78300
C102        C  0.63651554  0.75570618  0.25326351     0.77400
C103        C  0.72043298  0.10068108  0.47626823     0.80500
N104        N  0.70446645  0.12953708  0.45597495    -0.77900
C105        C  0.69639608  0.12487005  0.41425618     0.82900
N106        N  0.70510323  0.09203156  0.39355059    -0.77800
C107        C  0.72127197  0.06402655  0.41322013     0.83000
N108        N  0.72861798  0.06820249  0.45434948    -0.79500
C109        C  0.34956303  0.26254181  0.48264994     0.80500
N110        N  0.32943364  0.24143977  0.44573958    -0.77900
C111        C  0.35870390  0.25332839  0.41103745     0.82900
N112        N  0.40767360  0.28644270  0.41360724    -0.77800
C113        C  0.42852930  0.30924169  0.44894115     0.83000
N114        N  0.39988653  0.29698796  0.48408582    -0.79500
Zn115      Zn  0.13298229  0.18307500  0.29379387     1.49700
Zn116      Zn  0.20798293  0.26520676  0.22416845     1.49400
Zn117      Zn  0.09580909  0.17857591  0.20593212     1.49100
Zn118      Zn  0.12032720  0.27384387  0.26349247     1.49500
O119        O  0.13951338  0.22539645  0.24697676    -1.83900
O120        O  0.19876745  0.18944805  0.29751619    -0.74500
O121        O  0.20407773  0.26439774  0.16228405    -0.74300
O122        O  0.07668388  0.10456774  0.21854383    -0.73900
O123        O  0.25062813  0.23720728  0.24725335    -0.74500
O124        O  0.08884177  0.10701338  0.28608721    -0.74100
O125        O  0.12695138  0.20403270  0.14876692    -0.74700
O126        O  0.05919530  0.25922030  0.23201198    -0.74100
O127        O  0.24070701  0.34044064  0.23556699    -0.74900
O128        O  0.03420178  0.18596951  0.20213314    -0.74300
O129        O  0.17308168  0.34596695  0.25083265    -0.74700
O130        O  0.11195846  0.27323381  0.32498952    -0.74600
O131        O  0.12402384  0.21207019  0.34770924    -0.74400
C132        C  0.24081459  0.20850972  0.27876981     0.77400
C133        C  0.16916969  0.24041661  0.13677468     0.77900
C134        C  0.07409588  0.08231648  0.25282400     0.76800
C135        C  0.02942852  0.22390972  0.20898584     0.77200
C136        C  0.21997359  0.36676754  0.24249613     0.78300
C137        C  0.11762955  0.24919408  0.35452834     0.77400
C138        C  0.88273051  0.26155006  0.02746263     0.80500
N139        N  0.85748537  0.28499739  0.04131068    -0.77900
C140        C  0.85909739  0.29629858  0.08223627     0.82900
N141        N  0.88550663  0.28383487  0.10832217    -0.77800
C142        C  0.91047545  0.26107257  0.09469001     0.83000
N143        N  0.90957451  0.25035699  0.05433472    -0.79500
C144        C  0.94344394  0.05283639  0.75291557     0.80500
N145        N  0.91900244  0.00181690  0.75289912    -0.77900
C146        C  0.94551285  0.97669442  0.75222237     0.82900
N147        N  0.99671292  0.00294432  0.75057791    -0.77800
C148        C  0.02204501  0.05349521  0.75031535     0.83000
N149        N  0.99520908  0.07828233  0.75196227    -0.79500
Zn150      Zn  0.17832167  0.13852923  0.79306554     1.49700
Zn151      Zn  0.17820487  0.12115260  0.69814162     1.49400
Zn152      Zn  0.26380477  0.22312635  0.73385720     1.49100
Zn153      Zn  0.26950808  0.12975072  0.75575086     1.49500
O154        O  0.22179749  0.15224823  0.74513510    -1.83900
O155        O  0.10297916  0.08905381  0.78241637    -0.74500
O156        O  0.20413234  0.16784974  0.64725975    -0.74300
O157        O  0.23030132  0.25875920  0.75963525    -0.73900
O158        O  0.10188689  0.09354194  0.71378129    -0.74500
O159        O  0.17623504  0.19981379  0.80243344    -0.74100
O160        O  0.27034523  0.23363195  0.67249369    -0.74700
O161        O  0.34127874  0.18282910  0.74192662    -0.74100
O162        O  0.19073024  0.06596401  0.67981919    -0.74900
O163        O  0.33736207  0.25143025  0.75170558    -0.74300
O164        O  0.25339400  0.07188528  0.71887823    -0.74700
O165        O  0.27212031  0.11778910  0.81746674    -0.74600
O166        O  0.21116071  0.12820165  0.84495336    -0.74400
C167        C  0.07854544  0.08057166  0.74873631     0.77400
C168        C  0.24470521  0.20938303  0.64180145     0.77900
C169        C  0.19625494  0.24370607  0.78767784     0.76800
C170        C  0.36313702  0.22968257  0.74625995     0.77200
C171        C  0.22291974  0.05271521  0.68906874     0.78300
C172        C  0.24921155  0.12179665  0.84897525     0.77400
C173        C  0.19093658  0.34179967  0.98021549     0.80500
N174        N  0.16558898  0.32081851  0.94482722    -0.77900
C175        C  0.17230831  0.34969245  0.91069855     0.82900
N176        N  0.20403285  0.39876169  0.91270676    -0.77800
C177        C  0.23245876  0.41956297  0.94586891     0.83000
N178        N  0.22672182  0.39105286  0.97988821    -0.79500
C179        C  0.14731412  0.33075527  0.51859076     0.80500
N180        N  0.11568336  0.29888384  0.54814395    -0.77900
C181        C  0.11476533  0.31545758  0.58649571     0.82900
N182        N  0.14372354  0.36395114  0.59445648    -0.77800
C183        C  0.17485818  0.39636816  0.56572179     0.83000
N184        N  0.17690476  0.38011901  0.52716893    -0.79500
Zn185      Zn  0.81868736  0.08805107  0.72977048     1.49700
Zn186      Zn  0.84119948  0.19992537  0.71056243     1.49400
Zn187      Zn  0.79663092  0.15899104  0.79336156     1.49100
Zn188      Zn  0.90806784  0.17487255  0.77653006     1.49500
O189        O  0.84144171  0.15488868  0.75259546    -1.83900
O190        O  0.78996710  0.08328438  0.66953773    -0.74500
O191        O  0.80767938  0.24225066  0.72467596    -0.74300
O192        O  0.74884741  0.09066526  0.81182822    -0.73900
O193        O  0.80452287  0.16038679  0.66204128    -0.74500
O194        O  0.76690486  0.04307191  0.77214604    -0.74100
O195        O  0.76115404  0.19859644  0.77798908    -0.74700
O196        O  0.91335968  0.20331498  0.83557998    -0.74100
O197        O  0.91138496  0.23857592  0.68976162    -0.74900
O198        O  0.83527287  0.19010873  0.84400565    -0.74300
O199        O  0.95685989  0.22336217  0.73541882    -0.74700
O200        O  0.92955449  0.11994722  0.77504333    -0.74600
O201        O  0.87378748  0.06533008  0.73230359    -0.74400
C202        C  0.78780714  0.11706194  0.64770292     0.77400
C203        C  0.77320012  0.23338718  0.75138758     0.77900
C204        C  0.74448427  0.04874911  0.80322262     0.76800
C205        C  0.87927457  0.20507910  0.85756817     0.77200
C206        C  0.95221444  0.24072259  0.70092081     0.78300
C207        C  0.91397807  0.08064510  0.75353900     0.77400
C208        C  0.11651151  0.74105798  0.97417963     0.80500
N209        N  0.08683252  0.75139129  0.94986564    -0.77900
C210        C  0.08789150  0.74828913  0.90829657     0.82900
N211        N  0.11819015  0.73282770  0.89112449    -0.77800
C212        C  0.14795615  0.72146232  0.91433708     0.83000
N213        N  0.14784384  0.72643600  0.95631990    -0.79500
Zn214      Zn  0.36810019  0.65797063  0.68679503     1.49700
Zn215      Zn  0.28862014  0.59988783  0.75728884     1.49400
Zn216      Zn  0.40256025  0.62412702  0.76391583     1.49100
Zn217      Zn  0.37295396  0.71126219  0.76908567     1.49500
O218        O  0.35816925  0.64871177  0.74512709    -1.83900
O219        O  0.31530303  0.59969074  0.65881350    -0.74500
O220        O  0.29027090  0.55983736  0.80554431    -0.74300
O221        O  0.43527694  0.60768335  0.71431061    -0.73900
O222        O  0.25609554  0.55674308  0.70618279    -0.74500
O223        O  0.43004066  0.65837071  0.66807904    -0.74100
O224        O  0.36708957  0.56960386  0.80786956    -0.74700
O225        O  0.43305054  0.73378427  0.80790053    -0.74100
O226        O  0.24988663  0.63143669  0.78284169    -0.74900
O227        O  0.45492646  0.67567163  0.79954150    -0.74300
O228        O  0.31464198  0.70027442  0.80573528    -0.74700
O229        O  0.37493469  0.75952471  0.72334588    -0.74600
O230        O  0.36348721  0.71645275  0.66618891    -0.74400
C231        C  0.27355800  0.56246951  0.66929772     0.77400
C232        C  0.32318255  0.55302040  0.82358616     0.77900
C233        C  0.44572989  0.62868152  0.67854917     0.76800
C234        C  0.46013483  0.71422861  0.81741613     0.77200
C235        C  0.26757933  0.66925995  0.80610677     0.78300
C236        C  0.36578582  0.75344340  0.68469072     0.77400
Zn237      Zn  0.88268426  0.82224078  0.79837405     1.49700
Zn238      Zn  0.86655323  0.82442425  0.70629776     1.49400
Zn239      Zn  0.86736836  0.73047476  0.74410114     1.49100
Zn240      Zn  0.77436330  0.74084045  0.76336817     1.49500
O241        O  0.84724432  0.77959655  0.75294984    -1.83900
O242        O  0.90377987  0.89665541  0.78671502    -0.74500
O243        O  0.88061563  0.79379412  0.65577827    -0.74300
O244        O  0.92691450  0.74592042  0.77869267    -0.73900
O245        O  0.91552499  0.89840498  0.71881744    -0.74500
O246        O  0.94430480  0.81582999  0.81025138    -0.74100
O247        O  0.88051804  0.72783967  0.68375094    -0.74700
O248        O  0.74475590  0.66710586  0.74543650    -0.74100
O249        O  0.80575875  0.82598903  0.69248325    -0.74900
O250        O  0.81243785  0.66042786  0.75762017    -0.74300
O251        O  0.74051089  0.77586799  0.73227808    -0.74700
O252        O  0.76537051  0.73321820  0.82632316    -0.74600
O253        O  0.84015812  0.79026471  0.84955229    -0.74400
C254        C  0.91967424  0.92109486  0.75258787     0.77400
C255        C  0.88248078  0.75364437  0.65228901     0.77900
C256        C  0.95393013  0.78089153  0.80295942     0.76800
C257        C  0.76539427  0.64030227  0.75136354     0.77200
C258        C  0.76019012  0.80850256  0.70304884     0.78300
C259        C  0.79627862  0.75300456  0.85581155     0.77400
C260        C  0.65276467  0.72894166  0.51588725     0.80500
N261        N  0.61207845  0.68479282  0.52839143    -0.77900
C262        C  0.58863500  0.68198438  0.56504633     0.82900
N263        N  0.60545797  0.72249994  0.58845176    -0.77800
C264        C  0.64498957  0.76630304  0.57707187     0.83000
N265        N  0.66903321  0.76923524  0.54085345    -0.79500
C266        C  0.65916486  0.85744324  0.99292589     0.80500
N267        N  0.61723427  0.81503449  0.98042338    -0.77900
C268        C  0.59814275  0.81420701  0.94231742     0.82900
N269        N  0.62080790  0.85444977  0.91747660    -0.77800
C270        C  0.66231942  0.89579180  0.92890299     0.83000
N271        N  0.68187854  0.89737512  0.96661863    -0.79500
C272        C  0.26951605  0.89070930  0.52597680     0.80500
N273        N  0.25668545  0.91837129  0.55022458    -0.77900
C274        C  0.26269846  0.91952334  0.59178813     0.82900
N275        N  0.28271658  0.89324448  0.60859608    -0.77800
C276        C  0.29589818  0.86507792  0.58554804     0.83000
N277        N  0.28894477  0.86363715  0.54385747    -0.79500
C278        C  0.66452628  0.34588036  0.74381318     0.03400
C279        C  0.61143700  0.31893362  0.74555209    -0.12800
C280        C  0.58295942  0.34353691  0.74645237     0.00900
C281        C  0.60834148  0.39574393  0.74483487    -0.11300
C282        C  0.66116425  0.42366558  0.74307129     0.03400
C283        C  0.68909626  0.39839116  0.74307309    -0.10700
H284        H  0.59226462  0.27876798  0.74661284     0.08900
H285        H  0.58673703  0.41501880  0.74479739     0.06500
H286        H  0.72977490  0.41952179  0.74255533     0.06300
C287        C  0.70790761  0.50277524  0.78140769    -0.05500
C288        C  0.68681475  0.47931937  0.74413613     0.00400
C289        C  0.68892305  0.50899000  0.70961655    -0.08200
C290        C  0.71314156  0.56131969  0.71350047    -0.05600
C291        C  0.73532078  0.58478966  0.75056390     0.00400
C292        C  0.73194162  0.55495773  0.78531824    -0.08100
C293        C  0.75265606  0.57823133  0.82673663     0.62300
H294        H  0.70529807  0.47963764  0.80764972     0.13000
H295        H  0.71613973  0.58454047  0.68717410     0.13000
C296        C  0.66700126  0.48549479  0.66853722     0.62500
F297        F  0.73988329  0.54266821  0.85764816    -0.22700
F298        F  0.73335986  0.60863922  0.83764163    -0.20000
F299        F  0.80454281  0.60608023  0.82445895    -0.19700
F300        F  0.61559036  0.45470945  0.67252625    -0.19700
F301        F  0.68873671  0.45795819  0.65551193    -0.20000
F302        F  0.67558258  0.52085102  0.63833614    -0.22700
C303        C  0.67746690  0.79944852  0.68277659    -0.05500
C304        C  0.72973390  0.82316074  0.67681189     0.00400
C305        C  0.75024470  0.85186542  0.63968729    -0.08200
C306        C  0.71913536  0.83933889  0.60518813    -0.05600
C307        C  0.66801126  0.80465793  0.60919959     0.00400
C308        C  0.64632880  0.79428532  0.64943769    -0.08100
C309        C  0.59079064  0.77439378  0.65735934     0.62300
H310        H  0.66080641  0.78263391  0.71239713     0.13000
H311        H  0.73576344  0.85234458  0.57480514     0.13000
C312        C  0.80485892  0.89187050  0.63433551     0.62500
F313        F  0.58458593  0.80258723  0.68715049    -0.22700
F314        F  0.56874775  0.72581346  0.67131174    -0.20000
F315        F  0.56662671  0.77664831  0.62212410    -0.19700
F316        F  0.83362762  0.87121720  0.62153241    -0.19700
F317        F  0.82315833  0.91659882  0.67096288    -0.20000
F318        F  0.80939344  0.92664373  0.60491440    -0.22700
C319        C  0.46247508  0.62153307  0.60514454    -0.05500
C320        C  0.47502677  0.61899424  0.64652983     0.00400
C321        C  0.51828304  0.61476629  0.65456624    -0.08200
C322        C  0.55175141  0.62247482  0.62139080    -0.05600
C323        C  0.54449304  0.63732678  0.58197674     0.00400
C324        C  0.49684977  0.63115830  0.57264773    -0.08100
C325        C  0.48506185  0.64076147  0.52929221     0.62300
H326        H  0.42750248  0.62105011  0.59880635     0.13000
H327        H  0.58811982  0.62600758  0.62767397     0.13000
C328        C  0.53164091  0.60688006  0.69790944     0.62500
F329        F  0.43550237  0.62975498  0.52594399    -0.22700
F330        F  0.49312745  0.61126308  0.50210983    -0.20000
F331        F  0.51570356  0.69015187  0.51818546    -0.19700
F332        F  0.49291656  0.56332150  0.71458478    -0.19700
F333        F  0.53938101  0.64620054  0.72243792    -0.20000
F334        F  0.57498761  0.60322803  0.69829673    -0.22700
C335        C  0.47809717  0.74812798  0.88806780    -0.05500
C336        C  0.49461604  0.73312007  0.85322750     0.00400
C337        C  0.54073327  0.73238861  0.85529786    -0.08200
C338        C  0.57016405  0.75053040  0.89088681    -0.05600
C339        C  0.55608835  0.77064357  0.92353394     0.00400
C340        C  0.50810440  0.76669727  0.92330399    -0.08100
C341        C  0.49006729  0.78428641  0.95970507     0.62300
H342        H  0.44176183  0.74617615  0.88722023     0.13000
H343        H  0.60739126  0.75447780  0.89156945     0.13000
C344        C  0.56105741  0.71625092  0.81923986     0.62500
F345        F  0.44010781  0.77181040  0.95599603    -0.22700
F346        F  0.51874701  0.83532866  0.96280028    -0.20000
F347        F  0.49463040  0.76227848  0.99551089    -0.19700
F348        F  0.56187934  0.74198287  0.78383790    -0.19700
F349        F  0.53126007  0.66579920  0.81330602    -0.20000
F350        F  0.60959270  0.72548838  0.82592482    -0.22700
C351        C  0.29548146  0.81884023  0.64835478    -0.05500
C352        C  0.31462100  0.83483390  0.60809560     0.00400
C353        C  0.35303049  0.82549905  0.59355262    -0.08200
C354        C  0.37025400  0.80039417  0.61998712    -0.05600
C355        C  0.35213182  0.78644216  0.66084090     0.00400
C356        C  0.31429036  0.79641080  0.67537851    -0.08100
C357        C  0.29249207  0.78234496  0.71894882     0.62300
H358        H  0.26498904  0.82408438  0.65885689     0.13000
H359        H  0.39814437  0.79128712  0.60888519     0.13000
C360        C  0.37641733  0.84245740  0.55091902     0.62500
F361        F  0.25452847  0.79358125  0.72592701    -0.22700
F362        F  0.32990242  0.80830011  0.74715302    -0.20000
F363        F  0.27253536  0.73187848  0.72573059    -0.19700
F364        F  0.39452518  0.89292354  0.54599632    -0.19700
F365        F  0.34083455  0.81709033  0.52131244    -0.20000
F366        F  0.41614144  0.83368187  0.54457419    -0.22700
C367        C  0.25797976  0.71076975  0.86813363    -0.05500
C368        C  0.23438938  0.67798150  0.83535169     0.00400
C369        C  0.18131598  0.65614124  0.83170399    -0.08200
C370        C  0.15472744  0.66901650  0.86028318    -0.05600
C371        C  0.17871633  0.70329950  0.89195327     0.00400
C372        C  0.23143146  0.72435383  0.89601107    -0.08100
C373        C  0.26014587  0.76270764  0.92828092     0.62300
H374        H  0.29819927  0.72669858  0.87153291     0.13000
H375        H  0.11444312  0.65332526  0.85734002     0.13000
C376        C  0.15253654  0.62088954  0.79719514     0.62500
F377        F  0.31159151  0.78122543  0.92505370    -0.22700
F378        F  0.24454285  0.74116614  0.96699747    -0.20000
F379        F  0.25136486  0.80218231  0.92360139    -0.19700
F380        F  0.15518909  0.57776861  0.80132421    -0.19700
F381        F  0.17267746  0.64340758  0.75941131    -0.20000
F382        F  0.10215710  0.60767744  0.79769053    -0.22700
C383        C  0.04831632  0.74319388  0.84062440    -0.05500
C384        C  0.05664174  0.76136961  0.88113191     0.00400
C385        C  0.03593696  0.79162540  0.89348098    -0.08200
C386        C  0.00525207  0.79939776  0.86569609    -0.05600
C387        C  0.99426250  0.77827647  0.82637658     0.00400
C388        C  0.01779039  0.75117195  0.81291477    -0.08100
C389        C  0.01043586  0.72962351  0.76992729     0.62300
H390        H  0.06449284  0.72074229  0.83092064     0.13000
H391        H  0.98723496  0.82014126  0.87555114     0.13000
C392        C  0.04493178  0.81547365  0.93563442     0.62500
F393        F  0.04602549  0.71589146  0.76038608    -0.22700
F394        F  0.01489365  0.76447547  0.74066762    -0.20000
F395        F  0.96343985  0.68776722  0.76751148    -0.19700
F396        F  0.09596520  0.84197765  0.94330080    -0.19700
F397        F  0.02060677  0.77917715  0.96579558    -0.20000
F398        F  0.02669874  0.84833174  0.93828729    -0.22700
C399        C  0.73506856  0.27688260  0.71220158    -0.05500
C400        C  0.74610335  0.26317732  0.75070313     0.00400
C401        C  0.73096172  0.27820953  0.78704526    -0.08200
C402        C  0.70555502  0.30591824  0.78330734    -0.05600
C403        C  0.69398119  0.31872539  0.74487801     0.00400
C404        C  0.70867564  0.30366146  0.70867375    -0.08100
C405        C  0.69590484  0.31550716  0.66645823     0.62300
H406        H  0.74640880  0.26541514  0.68459734     0.13000
H407        H  0.69362526  0.31728189  0.81065703     0.13000
C408        C  0.74197881  0.26590512  0.82983812     0.62500
F409        F  0.71194865  0.29644180  0.63509981    -0.22700
F410        F  0.71883109  0.36642602  0.66077335    -0.20000
F411        F  0.64436205  0.29526256  0.66340258    -0.19700
F412        F  0.79261167  0.28094219  0.83289115    -0.19700
F413        F  0.71376375  0.21531566  0.83734067    -0.20000
F414        F  0.73006610  0.28951374  0.86029803    -0.22700
C415        C  0.71666447  0.02109228  0.87507569    -0.05500
C416        C  0.71832952  0.00775956  0.83378142     0.00400
C417        C  0.70102529  0.95733489  0.82449549    -0.08200
C418        C  0.68578734  0.92287156  0.85719104    -0.05600
C419        C  0.68559684  0.93654368  0.89835915     0.00400
C420        C  0.70013392  0.98614531  0.90763183    -0.08100
C421        C  0.69777510  0.00205942  0.95136464     0.62300
H422        H  0.73018628  0.05968962  0.88215239     0.13000
H423        H  0.67360151  0.88434116  0.85072058     0.13000
C424        C  0.69764050  0.93918755  0.78062922     0.62500
F425        F  0.70690667  0.05046998  0.95248641    -0.22700
F426        F  0.73354030  0.99885025  0.97503653    -0.20000
F427        F  0.65052557  0.97177655  0.96853982    -0.19700
F428        F  0.74512563  0.95218924  0.76572188    -0.19700
F429        F  0.67607677  0.95976672  0.75554100    -0.20000
F430        F  0.66821044  0.88803041  0.77859831    -0.22700
C431        C  0.04290064  0.28394079  0.68557565    -0.05500
C432        C  0.99375446  0.25765575  0.67089339     0.00400
C433        C  0.98537570  0.23986498  0.62976641    -0.08200
C434        C  0.02702940  0.25517493  0.60329726    -0.05600
C435        C  0.07602669  0.28501026  0.61731543     0.00400
C436        C  0.08426287  0.29577378  0.65985367    -0.08100
C437        C  0.13580043  0.31944232  0.67935124     0.62300
H438        H  0.04902075  0.29411715  0.71779403     0.13000
H439        H  0.02130036  0.24651858  0.57082866     0.13000
C440        C  0.93317464  0.20428285  0.61368534     0.62500
F441        F  0.13361842  0.29290202  0.71466083    -0.22700
F442        F  0.15021572  0.36774710  0.68996162    -0.20000
F443        F  0.17192322  0.31951675  0.65339365    -0.19700
F444        F  0.90591567  0.22870493  0.60923377    -0.19700
F445        F  0.90818891  0.16436259  0.64072309    -0.20000
F446        F  0.93542859  0.18544104  0.57569436    -0.22700
C447        C  0.27705724  0.50716193  0.61701808    -0.05500
C448        C  0.24800548  0.52423907  0.63768009     0.00400
C449        C  0.19758554  0.50650936  0.62610808    -0.08200
C450        C  0.17664410  0.46877618  0.59664539    -0.05600
C451        C  0.20435611  0.44820547  0.57904887     0.00400
C452        C  0.25583525  0.46883520  0.58814815    -0.08100
C453        C  0.28720110  0.44842942  0.56910533     0.62300
H454        H  0.31624922  0.52255442  0.62523175     0.13000
H455        H  0.13697949  0.45202319  0.58959234     0.13000
C456        C  0.16628217  0.52729030  0.64466913     0.62500
F457        F  0.33661308  0.47375789  0.58200560    -0.22700
F458        F  0.28713629  0.45292030  0.52664628    -0.20000
F459        F  0.26734109  0.39886917  0.58000873    -0.19700
F460        F  0.19072326  0.57825499  0.63858470    -0.19700
F461        F  0.15922578  0.51655124  0.68646553    -0.20000
F462        F  0.11936962  0.50736675  0.62681751    -0.22700
C463        C  0.33067188  0.49749734  0.87620826    -0.05500
C464        C  0.31060259  0.52800381  0.86499131     0.00400
C465        C  0.27992232  0.53531349  0.89435906    -0.08200
C466        C  0.26454921  0.50603307  0.93072924    -0.05600
C467        C  0.27652398  0.46845938  0.93735805     0.00400
C468        C  0.31524517  0.46873353  0.91288853    -0.08100
C469        C  0.33176273  0.43058184  0.91995713     0.62300
H470        H  0.35596176  0.49357073  0.85497294     0.13000
H471        H  0.23586999  0.50623825  0.95040172     0.13000
C472        C  0.26088336  0.57171520  0.88700014     0.62500
F473        F  0.38166214  0.44985991  0.90826204    -0.22700
F474        F  0.30243149  0.38892224  0.89692730    -0.20000
F475        F  0.32715256  0.41694826  0.96120601    -0.19700
F476        F  0.22410389  0.55367490  0.85725867    -0.19700
F477        F  0.30025496  0.61739796  0.87446392    -0.20000
F478        F  0.23993205  0.57890597  0.92242763    -0.22700
C479        C  0.50168099  0.28305154  0.71470230    -0.05500
C480        C  0.52652475  0.31456263  0.74765071     0.00400
C481        C  0.49719568  0.31757810  0.78057190    -0.08200
C482        C  0.44412516  0.29035848  0.77835404    -0.05600
C483        C  0.41935790  0.25881996  0.74543241     0.00400
C484        C  0.44864916  0.25494450  0.71296516    -0.08100
C485        C  0.42406749  0.22241593  0.67596467     0.62300
H486        H  0.52454225  0.28083864  0.68990687     0.13000
H487        H  0.42131543  0.29295165  0.80300454     0.13000
C488        C  0.52130663  0.34832256  0.81850252     0.62500
F489        F  0.45906240  0.22870001  0.64578662    -0.22700
F490        F  0.39006359  0.23433303  0.65868337    -0.20000
F491        F  0.39926043  0.17293361  0.68802304    -0.19700
F492        F  0.53825780  0.39788760  0.80972332    -0.19700
F493        F  0.56124302  0.34252396  0.83113999    -0.20000
F494        F  0.48731333  0.33394627  0.85116094    -0.22700
C495        C  0.23029638  0.97740505  0.68331048    -0.05500
C496        C  0.22737497  0.01598954  0.66329383     0.00400
C497        C  0.23456234  0.02199565  0.61995423    -0.08200
C498        C  0.24479891  0.98892704  0.59823601    -0.05600
C499        C  0.24890064  0.95057271  0.61811263     0.00400
C500        C  0.24033897  0.94403329  0.66174850    -0.08100
C501        C  0.24083847  0.90224406  0.68625037     0.62300
H502        H  0.22525231  0.97416274  0.71650607     0.13000
H503        H  0.25103490  0.99383937  0.56523771     0.13000
C504        C  0.23402332  0.06450357  0.59666609     0.62500
F505        F  0.22503600  0.89998603  0.72673045    -0.22700
F506        F  0.28921289  0.90949594  0.68725293    -0.20000
F507        F  0.20842307  0.85725656  0.66859350    -0.19700
F508        F  0.26802914  0.10930085  0.61379985    -0.19700
F509        F  0.18628169  0.05884537  0.59842874    -0.20000
F510        F  0.24726441  0.06604726  0.55556236    -0.22700
C511        C  0.13473367  0.25432568  0.82951817    -0.05500
C512        C  0.18016661  0.27702515  0.80639534     0.00400
C513        C  0.21164122  0.32918273  0.80815048    -0.08200
C514        C  0.20143958  0.35437655  0.83900887    -0.05600
C515        C  0.16282838  0.32861214  0.86876476     0.00400
C516        C  0.12528336  0.27979634  0.86054211    -0.08100
C517        C  0.07572929  0.25350142  0.88383843     0.62300
H518        H  0.10790185  0.21529017  0.82546921     0.13000
H519        H  0.22807954  0.39330836  0.84318741     0.13000
C520        C  0.25815916  0.35784096  0.78080213     0.62500
F521        F  0.03671940  0.23394781  0.85603837    -0.22700
F522        F  0.06880279  0.28547476  0.90898658    -0.20000
F523        F  0.07381911  0.21515428  0.90740786    -0.19700
F524        F  0.24502049  0.34855836  0.73980813    -0.19700
F525        F  0.29354113  0.34386460  0.79009954    -0.20000
F526        F  0.28046854  0.40865210  0.78615433    -0.22700
C527        C  0.91238961  0.28335203  0.95447708    -0.05500
C528        C  0.88138450  0.24702972  0.98380067     0.00400
C529        C  0.85511897  0.19646134  0.97224395    -0.08200
C530        C  0.85765940  0.18451069  0.93088873    -0.05600
C531        C  0.88742763  0.22078151  0.90125074     0.00400
C532        C  0.91650122  0.27084695  0.91330880    -0.08100
C533        C  0.95142818  0.31047802  0.88275163     0.62300
H534        H  0.93407132  0.32149761  0.96430734     0.13000
H535        H  0.83554936  0.14640293  0.92101697     0.13000
C536        C  0.82362364  0.15519626  0.00320560     0.62500
F537        F  0.97730144  0.35666663  0.90070578    -0.22700
F538        F  0.92408087  0.31371680  0.85027368    -0.20000
F539        F  0.98630518  0.29827274  0.86777607    -0.19700
F540        F  0.78591520  0.16258761  0.01930347    -0.19700
F541        F  0.85334669  0.15460791  0.03485653    -0.20000
F542        F  0.80151986  0.10889979  0.98534088    -0.22700
C543        C  0.10436726  0.31098385  0.45188864    -0.05500
C544        C  0.14272512  0.31228565  0.47612111     0.00400
C545        C  0.17151247  0.29136150  0.46115177    -0.08200
C546        C  0.16058972  0.26938766  0.42196462    -0.05600
C547        C  0.12238460  0.26836691  0.39722801     0.00400
C548        C  0.09389842  0.28994547  0.41238732    -0.08100
C549        C  0.05217357  0.29046198  0.38759519     0.62300
H550        H  0.08254256  0.32680965  0.46435890     0.13000
H551        H  0.18274043  0.25371092  0.40993025     0.13000
C552        C  0.21339280  0.29222829  0.48660031     0.62500
F553        F  0.02383857  0.30493317  0.41114547    -0.22700
F554        F  0.02008519  0.24345241  0.37307039    -0.20000
F555        F  0.07265090  0.32360001  0.35476274    -0.19700
F556        F  0.19329061  0.26351031  0.52195673    -0.19700
F557        F  0.24700997  0.34047787  0.49751213    -0.20000
F558        F  0.23977998  0.27391165  0.46501382    -0.22700
C559        C  0.22575315  0.31151644  0.03528269    -0.05500
C560        C  0.18343425  0.31052771  0.01769602     0.00400
C561        C  0.13576457  0.28193483  0.03728253    -0.08200
C562        C  0.13263011  0.25717919  0.07482725    -0.05600
C563        C  0.17524559  0.25968063  0.09343452     0.00400
C564        C  0.22250505  0.28598212  0.07252606    -0.08100
C565        C  0.26922797  0.28645428  0.08870112     0.62300
H566        H  0.26180986  0.33307410  0.01968193     0.13000
H567        H  0.09669061  0.23702310  0.09082094     0.13000
C568        C  0.08839461  0.27825791  0.01925576     0.62500
F569        F  0.30751912  0.30450035  0.05933592    -0.22700
F570        F  0.25792994  0.23862630  0.09934742    -0.20000
F571        F  0.28695534  0.31640923  0.12277967    -0.19700
F572        F  0.07654974  0.25079360  0.98380022    -0.19700
F573        F  0.09567680  0.32511089  0.01011946    -0.20000
F574        F  0.04763285  0.25491994  0.04613820    -0.22700
C575        C  0.01798805  0.27680671  0.15974483    -0.05500
C576        C  0.99527181  0.23246202  0.18314978     0.00400
C577        C  0.94396979  0.19726646  0.17774567    -0.08200
C578        C  0.91717556  0.20736122  0.14767292    -0.05600
C579        C  0.94069551  0.25109507  0.12361318     0.00400
C580        C  0.99137498  0.28686090  0.12994687    -0.08100
C581        C  0.01693321  0.33536463  0.10530670     0.62300
H582        H  0.05748561  0.30306666  0.16416659     0.13000
H583        H  0.87773680  0.18138252  0.14273099     0.13000
C584        C  0.91755057  0.15067067  0.20450789     0.62500
F585        F  0.06658017  0.36513124  0.11650966    -0.22700
F586        F  0.99186373  0.36162407  0.11181359    -0.20000
F587        F  0.01613856  0.32556920  0.06376204    -0.19700
F588        F  0.92483885  0.16340327  0.24564441    -0.19700
F589        F  0.93661712  0.11946391  0.19614391    -0.20000
F590        F  0.86625143  0.12485529  0.19766085    -0.22700
C591        C  0.24941044  0.19172012  0.56761486    -0.05500
C592        C  0.26555735  0.22707929  0.59898959     0.00400
C593        C  0.30512008  0.27605128  0.58962417    -0.08200
C594        C  0.33076018  0.28569488  0.55131889    -0.05600
C595        C  0.31709281  0.24921153  0.52101519     0.00400
C596        C  0.27384317  0.20171441  0.52871368    -0.08100
C597        C  0.25370330  0.16069020  0.49702597     0.62300
H598        H  0.21824424  0.15504582  0.57436137     0.13000
H599        H  0.36237909  0.32230876  0.54496162     0.13000
C600        C  0.32071136  0.31860932  0.61939108     0.62500
F601        F  0.21354947  0.11705134  0.51226444    -0.22700
F602        F  0.29114387  0.15048666  0.48511588    -0.20000
F603        F  0.23655241  0.17508968  0.46316079    -0.19700
F604        F  0.35065125  0.31569276  0.64982659    -0.19700
F605        F  0.27857679  0.31689605  0.63713998    -0.20000
F606        F  0.34777129  0.36425111  0.59945496    -0.22700
C607        C  0.29454054  0.18572827  0.36903564    -0.05500
C608        C  0.33765701  0.23280349  0.37014538     0.00400
C609        C  0.35800037  0.25970127  0.33207817    -0.08200
C610        C  0.32854050  0.24297183  0.29666960    -0.05600
C611        C  0.28024501  0.20212888  0.29888659     0.00400
C612        C  0.26688989  0.16872235  0.33286362    -0.08100
C613        C  0.22083307  0.11738883  0.33301182     0.62300
H614        H  0.28142656  0.16276196  0.39673796     0.13000
H615        H  0.33969998  0.26592027  0.26895523     0.13000
C616        C  0.40814305  0.30764230  0.32837524     0.62500
F617        F  0.23348903  0.08293761  0.34759351    -0.22700
F618        F  0.20186509  0.10362501  0.29372941    -0.20000
F619        F  0.18390501  0.11650667  0.35847072    -0.19700
F620        F  0.44655380  0.29876520  0.33956719    -0.19700
F621        F  0.40753726  0.34329233  0.35318654    -0.20000
F622        F  0.41853187  0.32676988  0.28848182    -0.22700
C623        C  0.77831192  0.15283094  0.58117080    -0.05500
C624        C  0.76785769  0.10946215  0.60408962     0.00400
C625        C  0.74016827  0.06295224  0.58429779    -0.08200
C626        C  0.72257895  0.06202181  0.54373236    -0.05600
C627        C  0.73320267  0.10556975  0.52126310     0.00400
C628        C  0.76269550  0.15194770  0.54022238    -0.08100
C629        C  0.77994411  0.20072943  0.51699125     0.62300
H630        H  0.80023967  0.18860635  0.59530842     0.13000
H631        H  0.70136031  0.02679352  0.52848049     0.13000
C632        C  0.73015903  0.01454324  0.60480790     0.62500
F633        F  0.81390767  0.24120591  0.53933009    -0.22700
F634        F  0.73895847  0.20673260  0.50889212    -0.20000
F635        F  0.80344465  0.20097513  0.48031100    -0.19700
F636        F  0.70394545  0.00727081  0.64148291    -0.19700
F637        F  0.77536005  0.01606146  0.61237970    -0.20000
F638        F  0.70193824  0.97396536  0.58021253    -0.22700
C639        C  0.69071220  0.71891529  0.40424061    -0.05500
C640        C  0.73859284  0.76178885  0.40114800     0.00400
C641        C  0.76109260  0.78751723  0.43786818    -0.08200
C642        C  0.73213241  0.77366726  0.47455593    -0.05600
C643        C  0.68194329  0.73438883  0.47667788     0.00400
C644        C  0.66179648  0.70461721  0.44115699    -0.08100
C645        C  0.60913783  0.65985170  0.44071890     0.62300
H646        H  0.67430781  0.69824561  0.37654307     0.13000
H647        H  0.74858413  0.79504242  0.50196759     0.13000
C648        C  0.81506081  0.83003820  0.43896561     0.62500
F649        F  0.59761524  0.63696094  0.40282655    -0.22700
F650        F  0.57428065  0.67474241  0.44927183    -0.20000
F651        F  0.60499188  0.62478723  0.46956015    -0.19700
F652        F  0.81812299  0.87264416  0.42207192    -0.19700
F653        F  0.84627595  0.81763272  0.41723807    -0.20000
F654        F  0.83260699  0.84045338  0.47890802    -0.22700
C655        C  0.67723692  0.85594308  0.10936347    -0.05500
C656        C  0.72981735  0.87576510  0.11210367     0.00400
C657        C  0.75895377  0.89063896  0.07497697    -0.08200
C658        C  0.73404691  0.88274871  0.03690839    -0.05600
C659        C  0.68144156  0.86124956  0.03443321     0.00400
C660        C  0.65267399  0.84913176  0.07138584    -0.08100
C661        C  0.59650129  0.83066404  0.07099986     0.62300
H662        H  0.65478968  0.84466316  0.13746409     0.13000
H663        H  0.75570884  0.89320848  0.00838071     0.13000
C664        C  0.81600697  0.91581638  0.07505031     0.62500
F665        F  0.57745141  0.82892583  0.11018516    -0.22700
F666        F  0.57145549  0.78335692  0.05516166    -0.20000
F667        F  0.58686072  0.86220529  0.04708418    -0.19700
F668        F  0.83093560  0.88206546  0.08670372    -0.19700
F669        F  0.83509088  0.95502240  0.10210316    -0.20000
F670        F  0.83670438  0.93465021  0.03644004    -0.22700
C671        C  0.79211048  0.01226848  0.35442109    -0.05500
C672        C  0.75198916  0.96920641  0.33792963     0.00400
C673        C  0.70155722  0.95612770  0.34863543    -0.08200
C674        C  0.69335140  0.98845709  0.37327342    -0.05600
C675        C  0.73333696  0.03136041  0.38920451     0.00400
C676        C  0.78350971  0.04357799  0.38033970    -0.08100
C677        C  0.82740529  0.08971695  0.39806342     0.62300
H678        H  0.83024780  0.02113205  0.34690393     0.13000
H679        H  0.65538758  0.98023919  0.38078310     0.13000
C680        C  0.65634654  0.90718151  0.33621688     0.62500
F681        F  0.87324882  0.09624873  0.38428968    -0.22700
F682        F  0.82604726  0.08570827  0.44061733    -0.20000
F683        F  0.82441036  0.13133866  0.38664775    -0.19700
F684        F  0.66420182  0.86811593  0.34661243    -0.19700
F685        F  0.64877526  0.90736892  0.29425961    -0.20000
F686        F  0.61258392  0.89891622  0.35608961    -0.22700
C687        C  0.50991233  0.31726432  0.44581074    -0.05500
C688        C  0.48308935  0.34293298  0.44656904     0.00400
C689        C  0.49989034  0.38519733  0.42047960    -0.08200
C690        C  0.53166329  0.39139322  0.38664367    -0.05600
C691        C  0.55006795  0.35845655  0.38050147     0.00400
C692        C  0.54254834  0.32324858  0.41264334    -0.08100
C693        C  0.56558647  0.28944869  0.41116493     0.62300
H694        H  0.49846865  0.28657121  0.46749601     0.13000
H695        H  0.54113643  0.42134549  0.36454877     0.13000
C696        C  0.48330319  0.42315673  0.42723527     0.62500
F697        F  0.54877441  0.25515844  0.44343221    -0.22700
F698        F  0.61737406  0.31752786  0.41404529    -0.20000
F699        F  0.55298688  0.26327573  0.37480089    -0.19700
F700        F  0.44860464  0.40916688  0.45929511    -0.19700
F701        F  0.46213313  0.42958338  0.39182614    -0.20000
F702        F  0.52489425  0.46801430  0.43687280    -0.22700
C703        C  0.63484167  0.19736598  0.36940181    -0.05500
C704        C  0.66137627  0.21463016  0.33170252     0.00400
C705        C  0.69995366  0.20365560  0.32226593    -0.08200
C706        C  0.71080430  0.17590745  0.35097594    -0.05600
C707        C  0.68439471  0.15832737  0.38881762     0.00400
C708        C  0.64503351  0.16862205  0.39793214    -0.08100
C709        C  0.61320214  0.14868872  0.43688909     0.62300
H710        H  0.60643481  0.20741240  0.37662336     0.13000
H711        H  0.74058485  0.16772505  0.34396806     0.13000
C712        C  0.73045632  0.22236422  0.28243189     0.62500
F713        F  0.57388695  0.15885353  0.43753816    -0.22700
F714        F  0.64255843  0.17026847  0.47093061    -0.20000
F715        F  0.59285110  0.09771110  0.43952478    -0.19700
F716        F  0.75389895  0.27365429  0.28009477    -0.19700
F717        F  0.69891996  0.20261364  0.24919053    -0.20000
F718        F  0.76725396  0.20880903  0.27967766    -0.22700
C719        C  0.85729340  0.35466276  0.13281850    -0.05500
C720        C  0.83243491  0.32089534  0.10082741     0.00400
C721        C  0.78101965  0.30477575  0.09412739    -0.08200
C722        C  0.75574089  0.32045955  0.12133248    -0.05600
C723        C  0.77944332  0.35058266  0.15550970     0.00400
C724        C  0.83170941  0.36948966  0.16065412    -0.08100
C725        C  0.85987501  0.40254522  0.19647295     0.62300
H726        H  0.89680774  0.36717173  0.13732281     0.13000
H727        H  0.71607175  0.30737539  0.11707334     0.13000
C728        C  0.75202347  0.26904661  0.06006001     0.62500
F729        F  0.90989094  0.41438351  0.19671352    -0.22700
F730        F  0.83790117  0.37854523  0.23338994    -0.20000
F731        F  0.85859534  0.44646171  0.19368261    -0.19700
F732        F  0.75377389  0.22554560  0.06511904    -0.19700
F733        F  0.77293184  0.29065935  0.02222950    -0.20000
F734        F  0.70192082  0.25686719  0.06006738    -0.22700
C735        C  0.90514038  0.69023272  0.56089641    -0.05500
C736        C  0.86620654  0.68400264  0.53445543     0.00400
C737        C  0.83467950  0.70342193  0.54602914    -0.08200
C738        C  0.84301896  0.72801850  0.58398284    -0.05600
C739        C  0.88118774  0.73316386  0.61080489     0.00400
C740        C  0.91289486  0.71395649  0.59916502    -0.08100
C741        C  0.95541924  0.71940376  0.62652511     0.62300
H742        H  0.92965776  0.67615645  0.55118925     0.13000
H743        H  0.81866246  0.74228863  0.59365116     0.13000
C744        C  0.79304725  0.69902102  0.51821424     0.62500
F745        F  0.98740871  0.70693370  0.60607796    -0.22700
F746        F  0.93591648  0.68853719  0.66082021    -0.20000
F747        F  0.98360478  0.76808818  0.63904967    -0.19700
F748        F  0.75753763  0.64952019  0.51383143    -0.19700
F749        F  0.81275103  0.71982526  0.47987336    -0.20000
F750        F  0.76902669  0.72314179  0.53426180    -0.22700
C751        C  0.79048729  0.52228981  0.42315579    -0.05500
C752        C  0.78771833  0.56559324  0.41704638     0.00400
C753        C  0.76689717  0.57151810  0.37990701    -0.08200
C754        C  0.75370922  0.53598499  0.34867860    -0.05600
C755        C  0.76007321  0.49420966  0.35338207     0.00400
C756        C  0.77765391  0.48660172  0.39212917    -0.08100
C757        C  0.78551133  0.44250209  0.40079040     0.62300
H758        H  0.80746025  0.51899053  0.45137335     0.13000
H759        H  0.73822077  0.54111503  0.32027034     0.13000
C760        C  0.75937249  0.61569287  0.37152958     0.62500
F761        F  0.81182156  0.44808794  0.43674620    -0.22700
F762        F  0.81285531  0.43746398  0.36889326    -0.20000
F763        F  0.73944949  0.39956769  0.40525799    -0.19700
F764        F  0.78822936  0.64232090  0.33765912    -0.19700
F765        F  0.77231576  0.64728332  0.40465420    -0.20000
F766        F  0.70923202  0.59883086  0.36316730    -0.22700
C767        C  0.30946406  0.09751239  0.94341511    -0.05500
C768        C  0.32267294  0.14005390  0.96704184     0.00400
C769        C  0.30847526  0.17478430  0.95276690    -0.08200
C770        C  0.28244596  0.16601878  0.91506655    -0.05600
C771        C  0.27082499  0.12430374  0.89081851     0.00400
C772        C  0.28430052  0.08920935  0.90542930    -0.08100
C773        C  0.27085384  0.04236666  0.88167339     0.62300
H774        H  0.31959865  0.07074672  0.95489735     0.13000
H775        H  0.27241140  0.19281401  0.90344448     0.13000
C776        C  0.32015906  0.22060229  0.97733430     0.62500
F777        F  0.28150982  0.01023447  0.90371810    -0.22700
F778        F  0.29795072  0.05437021  0.84503326    -0.20000
F779        F  0.21994191  0.01761336  0.87334212    -0.19700
F780        F  0.37160698  0.25228391  0.97766192    -0.19700
F781        F  0.30236494  0.20706178  0.01740851    -0.20000
F782        F  0.29803004  0.24632243  0.96058744    -0.22700
C783        C  0.43416791  0.24671512  0.11266051    -0.05500
C784        C  0.44936078  0.22917220  0.07880215     0.00400
C785        C  0.49814580  0.23492922  0.07877486    -0.08200
C786        C  0.52774780  0.25255900  0.11433519    -0.05600
C787        C  0.51099241  0.26617781  0.14997031     0.00400
C788        C  0.46357486  0.26467952  0.14847722    -0.08100
C789        C  0.44203674  0.27896449  0.18492705     0.62300
H790        H  0.39634984  0.24123625  0.11243944     0.13000
H791        H  0.56446100  0.25532653  0.11412309     0.13000
C792        C  0.51897541  0.21977004  0.04269603     0.62500
F793        F  0.39288513  0.26797753  0.17849182    -0.22700
F794        F  0.47035720  0.32950783  0.19129475    -0.20000
F795        F  0.44211239  0.25316942  0.21999792    -0.19700
F796        F  0.49015810  0.21075729  0.00779070    -0.19700
F797        F  0.52076895  0.17731685  0.05322695    -0.20000
F798        F  0.56717106  0.25746238  0.03314675    -0.22700
C799        C  0.07696839  0.72446818  0.04493284    -0.05500
C800        C  0.11878384  0.75347715  0.01874471     0.00400
C801        C  0.15754359  0.79932738  0.03322986    -0.08200
C802        C  0.15429394  0.81375081  0.07349343    -0.05600
C803        C  0.11400565  0.78420785  0.10052765     0.00400
C804        C  0.07420156  0.73875684  0.08600084    -0.08100
C805        C  0.02989000  0.70537190  0.11383365     0.62300
H806        H  0.04637707  0.69058311  0.03286791     0.13000
H807        H  0.18450472  0.84847144  0.08474043     0.13000
C808        C  0.20315658  0.83280372  0.00665936     0.62500
F809        F  0.99643609  0.66188505  0.09452883    -0.22700
F810        F  0.00427593  0.72990107  0.12496683    -0.20000
F811        F  0.04681979  0.69284261  0.14895856    -0.19700
F812        F  0.18860438  0.84200734  0.96880133    -0.19700
F813        F  0.23133868  0.80974524  0.00112736    -0.20000
F814        F  0.23353865  0.87812796  0.02480226    -0.22700
C815        C  0.21544765  0.84516414  0.41927748    -0.05500
C816        C  0.23100067  0.88999929  0.39693965     0.00400
C817        C  0.26168373  0.93544882  0.41724333    -0.08200
C818        C  0.27528401  0.93394390  0.45880262    -0.05600
C819        C  0.25924514  0.88888137  0.48078195     0.00400
C820        C  0.22820903  0.84368165  0.46067688    -0.08100
C821        C  0.20603060  0.79390195  0.48333260     0.62300
H822        H  0.19153842  0.81035248  0.40427795     0.13000
H823        H  0.29793521  0.96828764  0.47492008     0.13000
C824        C  0.27992580  0.98520048  0.39556257     0.62500
F825        F  0.18102200  0.79486503  0.51870753    -0.22700
F826        F  0.24392769  0.78399814  0.49376113    -0.20000
F827        F  0.17191582  0.75518135  0.45950130    -0.19700
F828        F  0.23934663  0.99179796  0.38705197    -0.19700
F829        F  0.30465833  0.98693329  0.35917785    -0.20000
F830        F  0.31297363  0.02437192  0.41954213    -0.22700
C831        C  0.01594642  0.69877819  0.35820390    -0.05500
C832        C  0.01410482  0.73480691  0.33257046     0.00400
C833        C  0.98277636  0.75483861  0.34390505    -0.08200
C834        C  0.95298008  0.73635084  0.37959964    -0.05600
C835        C  0.95412701  0.69972099  0.40411239     0.00400
C836        C  0.98632955  0.68090958  0.39412991    -0.08100
C837        C  0.98909593  0.64232325  0.42157357     0.62300
H838        H  0.04120454  0.68500428  0.35002472     0.13000
H839        H  0.92664176  0.74880073  0.38787439     0.13000
C840        C  0.98128285  0.79631195  0.31956536     0.62500
F841        F  0.02665500  0.63268667  0.40872000    -0.22700
F842        F  0.94375949  0.59830171  0.42119732    -0.20000
F843        F  0.99920295  0.65935837  0.46155229    -0.19700
F844        F  0.96291133  0.78005449  0.28057339    -0.19700
F845        F  0.02909861  0.83710694  0.31665825    -0.20000
F846        F  0.95046301  0.81160728  0.33819452    -0.22700
C847        C  0.27737860  0.05792401  0.11891659    -0.05500
C848        C  0.32124370  0.06274737  0.10074183     0.00400
C849        C  0.34553482  0.03839239  0.11840739    -0.08200
C850        C  0.32422027  0.00895728  0.15386920    -0.05600
C851        C  0.28013498  0.00376902  0.17202398     0.00400
C852        C  0.25613109  0.02868142  0.15458480    -0.08100
C853        C  0.20767245  0.02337591  0.17270527     0.62300
H854        H  0.26073693  0.07855508  0.10551431     0.13000
H855        H  0.34098121  0.98837883  0.16717262     0.13000
C856        C  0.39274273  0.04217630  0.09911501     0.62500
F857        F  0.19033005  0.04984471  0.15001475    -0.22700
F858        F  0.21589438  0.04116177  0.21246194    -0.20000
F859        F  0.17045598  0.97396937  0.17327283    -0.19700
F860        F  0.43228162  0.09028482  0.10129145    -0.19700
F861        F  0.38398599  0.02849354  0.05826111    -0.20000
F862        F  0.40703058  0.01137393  0.11895589    -0.22700
C863        C  0.73100484  0.67917519  0.95510466    -0.05500
C864        C  0.76996348  0.67341972  0.97248722     0.00400
C865        C  0.81735579  0.69503800  0.95168260    -0.08200
C866        C  0.82382109  0.72156739  0.91453280    -0.05600
C867        C  0.78513430  0.72761614  0.89713682     0.00400
C868        C  0.73787893  0.70633250  0.91787166    -0.08100
C869        C  0.69577956  0.71408344  0.90179068     0.62300
H870        H  0.69524104  0.66297558  0.97143771     0.13000
H871        H  0.85964954  0.73750129  0.89824613     0.13000
C872        C  0.86113918  0.68976378  0.96786710     0.62500
F873        F  0.65580059  0.69668030  0.92950859    -0.22700
F874        F  0.67804533  0.68912202  0.86526838    -0.20000
F875        F  0.71352467  0.76425941  0.89505663    -0.19700
F876        F  0.84496827  0.64080534  0.97879058    -0.19700
F877        F  0.88139624  0.71949811  0.00179875    -0.20000
F878        F  0.89921724  0.70408549  0.93859501    -0.22700
C879        C  0.66440420  0.46076737  0.10588613    -0.05500
C880        C  0.64356222  0.46911273  0.14176886     0.00400
C881        C  0.62597796  0.50365913  0.13970408    -0.08200
C882        C  0.63758496  0.53430612  0.10405450    -0.05600
C883        C  0.66744298  0.53227491  0.07170991     0.00400
C884        C  0.67570251  0.49135594  0.07048284    -0.08100
C885        C  0.70428371  0.48550437  0.03460589     0.62300
H886        H  0.67564778  0.43266331  0.10685789     0.13000
H887        H  0.63055681  0.56529974  0.10414232     0.13000
C888        C  0.59907586  0.51108695  0.17604098     0.62500
F889        F  0.70024970  0.43897935  0.03504597    -0.22700
F890        F  0.75468213  0.52099786  0.03645043    -0.20000
F891        F  0.68499750  0.49139074  0.99784013    -0.19700
F892        F  0.62865923  0.52290634  0.21073612    -0.19700
F893        F  0.55407790  0.46785066  0.18358868    -0.20000
F894        F  0.58848244  0.54903030  0.16865491    -0.22700
C895        C  0.85422441  0.72143374  0.11378838    -0.05500
C896        C  0.81949509  0.67066537  0.11726101     0.00400
C897        C  0.80427657  0.64949324  0.15755384    -0.08200
C898        C  0.80646321  0.68060699  0.18932688    -0.05600
C899        C  0.83059351  0.73201980  0.18279705     0.00400
C900        C  0.86289698  0.75242434  0.14755522    -0.08100
C901        C  0.90419653  0.80625886  0.14409737     0.62300
H902        H  0.87088938  0.73764219  0.08402277     0.13000
H903        H  0.78675481  0.66438863  0.21820990     0.13000
C904        C  0.78236223  0.59474335  0.16767251     0.62500
F905        F  0.94147604  0.81128909  0.11674357    -0.22700
F906        F  0.92626329  0.82268866  0.18207321    -0.20000
F907        F  0.88504408  0.83574803  0.12999327    -0.19700
F908        F  0.79006644  0.56959112  0.13598275    -0.19700
F909        F  0.73141706  0.57374489  0.17590426    -0.20000
F910        F  0.80544994  0.58928619  0.20231131    -0.22700
C911        C  0.30767703  0.50261816  0.20838653    -0.05500
C912        C  0.30303653  0.52866042  0.24179404     0.00400
C913        C  0.27161417  0.50125141  0.27574026    -0.08200
C914        C  0.24495380  0.44870251  0.27447391    -0.05600
C915        C  0.25023594  0.42252052  0.24137521     0.00400
C916        C  0.28208681  0.45006714  0.20759073    -0.08100
C917        C  0.28902821  0.42428025  0.17067217     0.62300
H918        H  0.33241635  0.52404677  0.18300939     0.13000
H919        H  0.22040770  0.42742181  0.29997988     0.13000
C920        C  0.26807688  0.52731686  0.31398049     0.62500
F921        F  0.31529265  0.45749473  0.13884111    -0.22700
F922        F  0.24270976  0.38939135  0.15576494    -0.20000
F923        F  0.31576138  0.40102698  0.18230435    -0.19700
F924        F  0.23928363  0.49385682  0.34487079    -0.19700
F925        F  0.24627801  0.55595786  0.30449212    -0.20000
F926        F  0.31573227  0.55749611  0.32922391    -0.22700
C927        C  0.55827871  0.73113840  0.21457909    -0.05500
C928        C  0.58073448  0.72486644  0.25002292     0.00400
C929        C  0.54948213  0.69421783  0.28273134    -0.08200
C930        C  0.49657252  0.67321033  0.27975603    -0.05600
C931        C  0.47417705  0.68139855  0.24490050     0.00400
C932        C  0.50554240  0.70873939  0.21091703    -0.08100
C933        C  0.48346593  0.71308574  0.17039075     0.62300
H934        H  0.58266729  0.75439140  0.18968393     0.13000
H935        H  0.47222241  0.65074257  0.30494369     0.13000
C936        C  0.57222256  0.68484349  0.32083016     0.62500
F937        F  0.51967548  0.73304078  0.13940208    -0.22700
F938        F  0.46263136  0.74343529  0.17486979    -0.20000
F939        F  0.44679928  0.66656412  0.15806120    -0.19700
F940        F  0.60291032  0.72927744  0.34006639    -0.19700
F941        F  0.60052418  0.66307174  0.30966742    -0.20000
F942        F  0.53554769  0.65343334  0.34881484    -0.22700
C943        C  0.30859070  0.71444665  0.27650032    -0.05500
C944        C  0.31746406  0.69873676  0.23849321     0.00400
C945        C  0.30169604  0.71242278  0.20195116    -0.08200
C946        C  0.27615849  0.74009306  0.20493981    -0.05600
C947        C  0.26536831  0.75412334  0.24321999     0.00400
C948        C  0.28312120  0.74204225  0.27961264    -0.08100
C949        C  0.27701658  0.75976377  0.32161211     0.62300
H950        H  0.32142178  0.70426849  0.30404515     0.13000
H951        H  0.26340082  0.75010674  0.17727740     0.13000
C952        C  0.31204460  0.69790374  0.16000121     0.62500
F953        F  0.30198490  0.74900660  0.35194732    -0.22700
F954        F  0.22671618  0.73684099  0.33282725    -0.20000
F955        F  0.29658491  0.81070594  0.32024848    -0.19700
F956        F  0.28830291  0.64675191  0.15742998    -0.19700
F957        F  0.36325878  0.71723246  0.15439732    -0.27200
F958        F  0.29488550  0.71562806  0.12825167    -0.22700
loop_ 
_geom_bond_atom_site_label_1 
_geom_bond_atom_site_label_2 
_geom_bond_distance 
_geom_bond_site_symmetry_2 
_ccdc_geom_bond_type 
C1            N2   1.374       .  A
C1            N6   1.379   1_565  A
C1           C43   1.529       .  S
N2            C3   1.373   1_455  A
C3            N4   1.358       .  A
C3           C98   1.493       .  S
N4            C5   1.359   1_665  A
C5            N6   1.379       .  A
C5          C134   1.503       .  S
C7          C944   1.505       .  S
C7            C8   1.413       .  A
C7           C12   1.411       .  A
C8            C9   1.415       .  A
C8           H13   1.083       .  S
C9          C931   1.503       .  S
C9           C10   1.408       .  A
C10          C11   1.409       .  A
C10          H14   1.084       .  S
C11         C912   1.501       .  S
C11          C12   1.412       .  A
C12          H15   1.083       .  S
C16          N17   1.374       .  A
C16          N21   1.366       .  A
C16         C864   1.496   1_554  S
N17          C18   1.366       .  A
C18          N19   1.342       .  A
C18         C883   1.472       .  S
N19          C20   1.339       .  A
C20          N21   1.360       .  A
C20         C896   1.483       .  S
Zn22         O26   1.935       .  S
Zn22         O27   1.974       .  S
Zn22         O31   2.069       .  S
Zn22         O38   1.948       .  S
Zn23         O26   1.985       .  S
Zn23         O28   2.021       .  S
Zn23         O30   2.118       .  S
Zn23         O34   2.135       .  S
Zn24         O26   1.934       .  S
Zn24         O29   2.055       .  S
Zn24         O32   1.950       .  S
Zn24         O35   1.973       .  S
Zn25         O26   1.991       .  S
Zn25         O33   2.114       .  S
Zn25         O36   2.123       .  S
Zn25         O37   2.027       .  S
O27          C39   1.271       .  A
O28          C40   1.277       .  A
O29          C41   1.273       .  A
O30          C39   1.286       .  A
O31          C41   1.274       .  A
O32          C40   1.270       .  A
O33          C42   1.286       .  A
O34          C43   1.288       .  A
O35          C42   1.270       .  A
O36          C43   1.285       .  A
O37          C44   1.278       .  A
O38          C44   1.270       .  A
C39         C803   1.499       .  S
C40         C832   1.471       .  S
C41         C947   1.509       .  S
C42         C816   1.510       .  S
C44         C851   1.462   1_565  S
C45          N46   1.364       .  A
C45          N50   1.376       .  A
C45         C768   1.502   1_554  S
N46          C47   1.357       .  A
C47          N48   1.339       .  A
C47         C848   1.458       .  S
N48          C49   1.343       .  A
C49          N50   1.371       .  A
C49         C784   1.478       .  S
C51          N52   1.375       .  A
C51          N56   1.360       .  A
C51         C736   1.488       .  S
N52          C53   1.371       .  A
C53          N54   1.342       .  A
C53         C752   1.473       .  S
N54          C55   1.339       .  A
C55          N56   1.351       .  A
C55         C835   1.446       .  S
Zn57         O61   1.928       .  S
Zn57         O62   2.096       .  S
Zn57         O66   1.998       .  S
Zn57         O73   2.057       .  S
Zn58         O61   1.902       .  S
Zn58         O63   1.953       .  S
Zn58         O65   1.970       .  S
Zn58         O69   1.935       .  S
Zn59         O61   1.932       .  S
Zn59         O64   2.072       .  S
Zn59         O67   2.103       .  S
Zn59         O70   2.011       .  S
Zn60         O61   1.966       .  S
Zn60         O68   2.060       .  S
Zn60         O71   2.108       .  S
Zn60         O72   2.027       .  S
O62          C74   1.283       .  A
O63          C75   1.262       .  A
O64          C76   1.283       .  A
O65          C74   1.266       .  A
O66          C76   1.275       .  A
O67          C75   1.283       .  A
O68          C77   1.279       .  A
O69          C78   1.261       .  A
O70          C77   1.274       .  A
O71          C78   1.286       .  A
O72          C79   1.275       .  A
O73          C79   1.282       .  A
C74         C704   1.486       .  S
C75         C755   1.503       .  S
C76         C723   1.493       .  S
C77         C880   1.495       .  S
C78         C691   1.492       .  S
C79         C787   1.508       .  S
Zn80         O84   1.930       .  S
Zn80         O85   2.011       .  S
Zn80         O89   1.989       .  S
Zn80         O96   2.014       .  S
Zn81         O84   1.942       .  S
Zn81         O86   2.050       .  S
Zn81         O88   2.056       .  S
Zn81         O92   1.948       .  S
Zn82         O84   1.950       .  S
Zn82         O87   2.046       .  S
Zn82         O90   2.097       .  S
Zn82         O93   2.034       .  S
Zn83         O84   1.970       .  S
Zn83         O91   2.023       .  S
Zn83         O94   2.051       .  S
Zn83         O95   2.080       .  S
O85          C97   1.274       .  A
O86          C98   1.278       .  A
O87          C99   1.279       .  A
O88          C97   1.277       .  A
O89          C99   1.272       .  A
O90          C98   1.284       .  A
O91         C100   1.275       .  A
O92         C101   1.264       .  A
O93         C100   1.275       .  A
O94         C101   1.281       .  A
O95         C102   1.280       .  A
O96         C102   1.272       .  A
C97         C656   1.505       .  S
C99         C672   1.483       .  S
C100        C640   1.502       .  S
C101        C899   1.482       .  S
C102        C928   1.492       .  S
C103        N104   1.376       .  A
C103        N108   1.358       .  A
C103        C627   1.503       .  S
N104        C105   1.373       .  A
C105        N106   1.355       .  A
C105        C707   1.501       .  S
N106        C107   1.349       .  A
C107        N108   1.351       .  A
C107        C675   1.466       .  S
C109        N110   1.367       .  A
C109        N114   1.374       .  A
C109        C595   1.507       .  S
N110        C111   1.362       .  A
C111        N112   1.336       .  A
C111        C608   1.484       .  S
N112        C113   1.342       .  A
C113        N114   1.363       .  A
C113        C688   1.467       .  S
Zn115       O119   1.939       .  S
Zn115       O120   1.926       .  S
Zn115       O124   2.075       .  S
Zn115       O131   2.052       .  S
Zn116       O119   1.964       .  S
Zn116       O121   2.011       .  S
Zn116       O123   2.033       .  S
Zn116       O127   2.070       .  S
Zn117       O119   1.952       .  S
Zn117       O122   2.101       .  S
Zn117       O125   2.042       .  S
Zn117       O128   2.012       .  S
Zn118       O119   1.941       .  S
Zn118       O126   1.985       .  S
Zn118       O129   2.042       .  S
Zn118       O130   2.008       .  S
O120        C132   1.266       .  A
O121        C133   1.272       .  A
O122        C134   1.283       .  A
O123        C132   1.280       .  A
O124        C134   1.279       .  A
O125        C133   1.278       .  A
O126        C135   1.275       .  A
O127        C136   1.277       .  A
O128        C135   1.276       .  A
O129        C136   1.273       .  A
O130        C137   1.272       .  A
O131        C137   1.280       .  A
C132        C611   1.470       .  S
C133        C563   1.495       .  S
C135        C576   1.464   1_455  S
C136        C915   1.503       .  S
C137        C547   1.492       .  S
C138        N139   1.372       .  A
C138        N143   1.356       .  A
C138        C528   1.485   1_554  S
N139        C140   1.372       .  A
C140        N141   1.352       .  A
C140        C720   1.492       .  S
N141        C142   1.346       .  A
C142        N143   1.351       .  A
C142        C579   1.455       .  S
C144        N145   1.374       .  A
C144        N149   1.376       .  A
C144        C207   1.524       .  S
N145        C146   1.374   1_545  A
C146        N147   1.362   1_565  A
C146        C254   1.498       .  S
N147        C148   1.361   1_655  A
C148        N149   1.375   1_455  A
C148        C167   1.502       .  S
Zn150       O154   1.940       .  S
Zn150       O155   2.075       .  S
Zn150       O159   1.958       .  S
Zn150       O166   2.067       .  S
Zn151       O154   1.954       .  S
Zn151       O156   2.059       .  S
Zn151       O158   2.106       .  S
Zn151       O162   2.022       .  S
Zn152       O154   1.947       .  S
Zn152       O157   2.024       .  S
Zn152       O160   2.006       .  S
Zn152       O163   2.059       .  S
Zn153       O154   1.934       .  S
Zn153       O161   2.030       .  S
Zn153       O164   2.017       .  S
Zn153       O165   2.041       .  S
O155        C167   1.282       .  A
O156        C168   1.280       .  A
O157        C169   1.275       .  A
O158        C167   1.285       .  A
O159        C169   1.269       .  A
O160        C168   1.271       .  A
O161        C170   1.272       .  A
O162        C171   1.276       .  A
O163        C170   1.278       .  A
O164        C171   1.278       .  A
O165        C172   1.277       .  A
O166        C172   1.281       .  A
C168        C592   1.504       .  S
C169        C512   1.479       .  S
C170        C483   1.495       .  S
C171        C496   1.478       .  S
C172        C771   1.500       .  S
C173        N174   1.368       .  A
C173        N178   1.369       .  A
C173        C560   1.490   1_556  S
N174        C175   1.364       .  A
C175        N176   1.342       .  A
C175        C515   1.483       .  S
N176        C177   1.342       .  A
C177        N178   1.361       .  A
C177        C467   1.467       .  S
C179        N180   1.361       .  A
C179        N184   1.371       .  A
C179        C544   1.478       .  S
N180        C181   1.356       .  A
C181        N182   1.343       .  A
C181        C435   1.466       .  S
N182        C183   1.344       .  A
C183        N184   1.366       .  A
C183        C451   1.472       .  S
Zn185       O189   1.984       .  S
Zn185       O190   2.124       .  S
Zn185       O194   2.021       .  S
Zn185       O201   2.125       .  S
Zn186       O189   1.943       .  S
Zn186       O191   2.077       .  S
Zn186       O193   1.985       .  S
Zn186       O197   1.979       .  S
Zn187       O189   1.948       .  S
Zn187       O192   1.968       .  S
Zn187       O195   2.060       .  S
Zn187       O198   1.989       .  S
Zn188       O189   1.980       .  S
Zn188       O196   2.091       .  S
Zn188       O199   1.993       .  S
Zn188       O200   2.106       .  S
O190        C202   1.286       .  A
O191        C203   1.278       .  A
O192        C204   1.272       .  A
O193        C202   1.272       .  A
O194        C204   1.277       .  A
O195        C203   1.275       .  A
O196        C205   1.283       .  A
O197        C206   1.272       .  A
O198        C205   1.271       .  A
O199        C206   1.275       .  A
O200        C207   1.283       .  A
O201        C207   1.285       .  A
C202        C624   1.518       .  S
C203        C400   1.515       .  S
C204        C416   1.480       .  S
C205        C531   1.485       .  S
C206        C432   1.466       .  S
C208        N209   1.356       .  A
C208        N213   1.373       .  A
C208        C800   1.493   1_556  S
N209        C210   1.354       .  A
C210        N211   1.355       .  A
C210        C384   1.497       .  S
N211        C212   1.356       .  A
C212        N213   1.372       .  A
C212        C371   1.501       .  S
Zn214       O218   1.910       .  S
Zn214       O219   1.965       .  S
Zn214       O223   1.979       .  S
Zn214       O230   1.994       .  S
Zn215       O218   1.939       .  S
Zn215       O220   2.003       .  S
Zn215       O222   2.069       .  S
Zn215       O226   2.048       .  S
Zn216       O218   1.954       .  S
Zn216       O221   2.086       .  S
Zn216       O224   2.044       .  S
Zn216       O227   1.996       .  S
Zn217       O218   1.932       .  S
Zn217       O225   2.057       .  S
Zn217       O228   2.018       .  S
Zn217       O229   2.074       .  S
O219        C231   1.267       .  A
O220        C232   1.271       .  A
O221        C233   1.282       .  A
O222        C231   1.281       .  A
O223        C233   1.274       .  A
O224        C232   1.276       .  A
O225        C234   1.282       .  A
O226        C235   1.278       .  A
O227        C234   1.271       .  A
O228        C235   1.275       .  A
O229        C236   1.282       .  A
O230        C236   1.270       .  A
C231        C448   1.479       .  S
C232        C464   1.493       .  S
C233        C320   1.494       .  S
C234        C336   1.491       .  S
C235        C368   1.506       .  S
C236        C355   1.492       .  S
Zn237       O241   1.933       .  S
Zn237       O242   2.093       .  S
Zn237       O246   2.029       .  S
Zn237       O253   2.022       .  S
Zn238       O241   1.923       .  S
Zn238       O243   2.049       .  S
Zn238       O245   2.072       .  S
Zn238       O249   1.939       .  S
Zn239       O241   1.926       .  S
Zn239       O244   1.995       .  S
Zn239       O247   2.006       .  S
Zn239       O250   2.021       .  S
Zn240       O241   1.964       .  S
Zn240       O248   2.089       .  S
Zn240       O251   2.090       .  S
Zn240       O252   2.054       .  S
O242        C254   1.283       .  A
O243        C255   1.279       .  A
O244        C256   1.272       .  A
O245        C254   1.281       .  A
O246        C256   1.278       .  A
O247        C255   1.272       .  A
O248        C257   1.281       .  A
O249        C258   1.263       .  A
O250        C257   1.272       .  A
O251        C258   1.286       .  A
O252        C259   1.279       .  A
O253        C259   1.278       .  A
C255        C739   1.486       .  S
C256        C387   1.488       .  S
C257        C291   1.497       .  S
C258        C304   1.489       .  S
C259        C867   1.496       .  S
C260        N261   1.371       .  A
C260        N265   1.369       .  A
C260        C643   1.508       .  S
N261        C262   1.364       .  A
C262        N263   1.343       .  A
C262        C323   1.471       .  S
N263        C264   1.341       .  A
C264        N265   1.360       .  A
C264        C307   1.484       .  S
C266        N267   1.374       .  A
C266        N271   1.364       .  A
C266        C659   1.492   1_556  S
N267        C268   1.366       .  A
C268        N269   1.341       .  A
C268        C339   1.469       .  S
N269        C270   1.341       .  A
C270        N271   1.356       .  A
C270        C419   1.468       .  S
C272        N273   1.360       .  A
C272        N277   1.371       .  A
C272        C819   1.497       .  S
N273        C274   1.360       .  A
C274        N275   1.350       .  A
C274        C499   1.499       .  S
N275        C276   1.357       .  A
C276        N277   1.368       .  A
C276        C352   1.504       .  S
C278        C403   1.507       .  S
C278        C279   1.412       .  A
C278        C283   1.415       .  A
C279        C280   1.413       .  A
C279        H284   1.082       .  S
C280        C480   1.500       .  S
C280        C281   1.406       .  A
C281        C282   1.406       .  A
C281        H285   1.088       .  S
C282        C288   1.501       .  S
C282        C283   1.416       .  A
C283        H286   1.082       .  S
C287        C288   1.404       .  A
C287        C292   1.414       .  A
C287        H294   1.083       .  S
C288        C289   1.422       .  A
C289        C290   1.418       .  A
C289        C296   1.518       .  S
C290        C291   1.406       .  A
C290        H295   1.084       .  S
C291        C292   1.420       .  A
C292        C293   1.519       .  S
C293        F297   1.384       .  S
C293        F298   1.384       .  S
C293        F299   1.382       .  S
C296        F300   1.382       .  S
C296        F301   1.383       .  S
C296        F302   1.385       .  S
C303        C304   1.401       .  A
C303        C308   1.403       .  A
C303        H310   1.083       .  S
C304        C305   1.431       .  A
C305        C306   1.402       .  A
C305        C312   1.516       .  S
C306        C307   1.396       .  A
C306        H311   1.084       .  S
C307        C308   1.419       .  A
C308        C309   1.512       .  S
C309        F313   1.383       .  S
C309        F314   1.379       .  S
C309        F315   1.385       .  S
C312        F316   1.383       .  S
C312        F317   1.384       .  S
C312        F318   1.385       .  S
C319        C320   1.411       .  A
C319        C324   1.405       .  A
C319        H326   1.083       .  S
C320        C321   1.418       .  A
C321        C322   1.414       .  A
C321        C328   1.517       .  S
C322        C323   1.410       .  A
C322        H327   1.083       .  S
C323        C324   1.408       .  A
C324        C325   1.517       .  S
C325        F329   1.384       .  S
C325        F330   1.382       .  S
C325        F331   1.383       .  S
C328        F332   1.382       .  S
C328        F333   1.382       .  S
C328        F334   1.385       .  S
C335        C336   1.409       .  A
C335        C340   1.409       .  A
C335        H342   1.083       .  S
C336        C337   1.424       .  A
C337        C338   1.409       .  A
C337        C344   1.521       .  S
C338        C339   1.403       .  A
C338        H343   1.084       .  S
C339        C340   1.411       .  A
C340        C341   1.516       .  S
C341        F345   1.385       .  S
C341        F346   1.383       .  S
C341        F347   1.383       .  S
C344        F348   1.384       .  S
C344        F349   1.382       .  S
C344        F350   1.385       .  S
C351        C352   1.408       .  A
C351        C356   1.404       .  A
C351        H358   1.076       .  S
C352        C353   1.420       .  A
C353        C354   1.419       .  A
C353        C360   1.516       .  S
C354        C355   1.411       .  A
C354        H359   1.083       .  S
C355        C356   1.416       .  A
C356        C357   1.523       .  S
C357        F361   1.385       .  S
C357        F362   1.383       .  S
C357        F363   1.383       .  S
C360        F364   1.383       .  S
C360        F365   1.381       .  S
C360        F366   1.384       .  S
C367        C368   1.411       .  A
C367        C372   1.411       .  A
C367        H374   1.082       .  S
C368        C369   1.423       .  A
C369        C370   1.414       .  A
C369        C376   1.520       .  S
C370        C371   1.409       .  A
C370        H375   1.083       .  S
C371        C372   1.416       .  A
C372        C373   1.512       .  S
C373        F377   1.385       .  S
C373        F378   1.382       .  S
C373        F379   1.383       .  S
C376        F380   1.383       .  S
C376        F381   1.384       .  S
C376        F382   1.385       .  S
C383        C384   1.410       .  A
C383        C388   1.405       .  A
C383        H390   1.082       .  S
C384        C385   1.425       .  A
C385        C386   1.407       .  A
C385        C392   1.522       .  S
C386        C387   1.405   1_455  A
C386        H391   1.082   1_455  S
C387        C388   1.419   1_655  A
C388        C389   1.522       .  S
C389        F393   1.385       .  S
C389        F394   1.384       .  S
C389        F395   1.383   1_455  S
C392        F396   1.383       .  S
C392        F397   1.383       .  S
C392        F398   1.385       .  S
C399        C400   1.411       .  A
C399        C404   1.419       .  A
C399        H406   1.083       .  S
C400        C401   1.428       .  A
C401        C402   1.419       .  A
C401        C408   1.519       .  S
C402        C403   1.404       .  A
C402        H407   1.083       .  S
C403        C404   1.418       .  A
C404        C405   1.517       .  S
C405        F409   1.385       .  S
C405        F410   1.383       .  S
C405        F411   1.383       .  S
C408        F412   1.383       .  S
C408        F413   1.382       .  S
C408        F414   1.385       .  S
C415        C416   1.414       .  A
C415        C420   1.403   1_545  A
C415        H422   1.082       .  S
C416        C417   1.416   1_545  A
C417        C418   1.399       .  A
C417        C424   1.521       .  S
C418        C419   1.406       .  A
C418        H423   1.084       .  S
C419        C420   1.409       .  A
C420        C421   1.520   1_565  S
C421        F425   1.384       .  S
C421        F426   1.383   1_545  S
C421        F427   1.384   1_545  S
C424        F428   1.383       .  S
C424        F429   1.384       .  S
C424        F430   1.385       .  S
C431        C432   1.399   1_455  A
C431        C436   1.397       .  A
C431        H438   1.085       .  S
C432        C433   1.425       .  A
C433        C434   1.401   1_655  A
C433        C440   1.523       .  S
C434        C435   1.398       .  A
C434        H439   1.083       .  S
C435        C436   1.418       .  A
C436        C437   1.517       .  S
C437        F441   1.384       .  S
C437        F442   1.383       .  S
C437        F443   1.383       .  S
C440        F444   1.382       .  S
C440        F445   1.384       .  S
C440        F446   1.385       .  S
C447        C448   1.408       .  A
C447        C452   1.406       .  A
C447        H454   1.085       .  S
C448        C449   1.412       .  A
C449        C450   1.408       .  A
C449        C456   1.518       .  S
C450        C451   1.409       .  A
C450        H455   1.085       .  S
C451        C452   1.410       .  A
C452        C453   1.517       .  S
C453        F457   1.384       .  S
C453        F458   1.383       .  S
C453        F459   1.383       .  S
C456        F460   1.384       .  S
C456        F461   1.382       .  S
C456        F462   1.385       .  S
C463        C464   1.404       .  A
C463        C468   1.409       .  A
C463        H470   1.084       .  S
C464        C465   1.429       .  A
C465        C466   1.408       .  A
C465        C472   1.521       .  S
C466        C467   1.397       .  A
C466        H471   1.084       .  S
C467        C468   1.418       .  A
C468        C469   1.514       .  S
C469        F473   1.384       .  S
C469        F474   1.383       .  S
C469        F475   1.384       .  S
C472        F476   1.383       .  S
C472        F477   1.383       .  S
C472        F478   1.385       .  S
C479        C480   1.404       .  A
C479        C484   1.413       .  A
C479        H486   1.087       .  S
C480        C481   1.423       .  A
C481        C482   1.414       .  A
C481        C488   1.519       .  S
C482        C483   1.404       .  A
C482        H487   1.087       .  S
C483        C484   1.422       .  A
C484        C485   1.520       .  S
C485        F489   1.385       .  S
C485        F490   1.384       .  S
C485        F491   1.382       .  S
C488        F492   1.381       .  S
C488        F493   1.383       .  S
C488        F494   1.385       .  S
C495        C496   1.396   1_565  A
C495        C500   1.407       .  A
C495        H502   1.083       .  S
C496        C497   1.417       .  A
C497        C498   1.405   1_545  A
C497        C504   1.518       .  S
C498        C499   1.405       .  A
C498        H503   1.082       .  S
C499        C500   1.432       .  A
C500        C501   1.518       .  S
C501        F505   1.385       .  S
C501        F506   1.383       .  S
C501        F507   1.382       .  S
C504        F508   1.383       .  S
C504        F509   1.382       .  S
C504        F510   1.384       .  S
C511        C512   1.413       .  A
C511        C516   1.399       .  A
C511        H518   1.085       .  S
C512        C513   1.416       .  A
C513        C514   1.401       .  A
C513        C520   1.522       .  S
C514        C515   1.414       .  A
C514        H519   1.082       .  S
C515        C516   1.404       .  A
C516        C517   1.510       .  S
C517        F521   1.384       .  S
C517        F522   1.384       .  S
C517        F523   1.382       .  S
C520        F524   1.383       .  S
C520        F525   1.383       .  S
C520        F526   1.385       .  S
C527        C528   1.407       .  A
C527        C532   1.416       .  A
C527        H534   1.083       .  S
C528        C529   1.418       .  A
C529        C530   1.407       .  A
C529        C536   1.520   1_556  S
C530        C531   1.403       .  A
C530        H535   1.084       .  S
C531        C532   1.415       .  A
C532        C533   1.514       .  S
C533        F537   1.385       .  S
C533        F538   1.383       .  S
C533        F539   1.383       .  S
C536        F540   1.382       .  S
C536        F541   1.382       .  S
C536        F542   1.383   1_554  S
C543        C544   1.401       .  A
C543        C548   1.409       .  A
C543        H550   1.083       .  S
C544        C545   1.413       .  A
C545        C546   1.411       .  A
C545        C552   1.518       .  S
C546        C547   1.409       .  A
C546        H551   1.083       .  S
C547        C548   1.423       .  A
C548        C549   1.519       .  S
C549        F553   1.385       .  S
C549        F554   1.383       .  S
C549        F555   1.383       .  S
C552        F556   1.383       .  S
C552        F557   1.383       .  S
C552        F558   1.385       .  S
C559        C560   1.404       .  A
C559        C564   1.412       .  A
C559        H566   1.084       .  S
C560        C561   1.418       .  A
C561        C562   1.409       .  A
C561        C568   1.518       .  S
C562        C563   1.407       .  A
C562        H567   1.083       .  S
C563        C564   1.422       .  A
C564        C565   1.519       .  S
C565        F569   1.384       .  S
C565        F570   1.384       .  S
C565        F571   1.382       .  S
C568        F572   1.378   1_554  S
C568        F573   1.384       .  S
C568        F574   1.384       .  S
C575        C576   1.404   1_455  A
C575        C580   1.396   1_455  A
C575        H582   1.084       .  S
C576        C577   1.413       .  A
C577        C578   1.407       .  A
C577        C584   1.516       .  S
C578        C579   1.403       .  A
C578        H583   1.083       .  S
C579        C580   1.408       .  A
C580        C581   1.520   1_655  S
C581        F585   1.385       .  S
C581        F586   1.383   1_455  S
C581        F587   1.382       .  S
C584        F588   1.384       .  S
C584        F589   1.382       .  S
C584        F590   1.385       .  S
C591        C592   1.405       .  A
C591        C596   1.413       .  A
C591        H598   1.081       .  S
C592        C593   1.424       .  A
C593        C594   1.412       .  A
C593        C600   1.520       .  S
C594        C595   1.407       .  A
C594        H599   1.082       .  S
C595        C596   1.428       .  A
C596        C597   1.521       .  S
C597        F601   1.384       .  S
C597        F602   1.384       .  S
C597        F603   1.382       .  S
C600        F604   1.383       .  S
C600        F605   1.384       .  S
C600        F606   1.385       .  S
C607        C608   1.402       .  A
C607        C612   1.398       .  A
C607        H614   1.083       .  S
C608        C609   1.435       .  A
C609        C610   1.402       .  A
C609        C616   1.521       .  S
C610        C611   1.391       .  A
C610        H615   1.083       .  S
C611        C612   1.415       .  A
C612        C613   1.515       .  S
C613        F617   1.383       .  S
C613        F618   1.385       .  S
C613        F619   1.384       .  S
C616        F620   1.382       .  S
C616        F621   1.381       .  S
C616        F622   1.385       .  S
C623        C624   1.418       .  A
C623        C628   1.410       .  A
C623        H630   1.081       .  S
C624        C625   1.423       .  A
C625        C626   1.420       .  A
C625        C632   1.519       .  S
C626        C627   1.414       .  A
C626        H631   1.083       .  S
C627        C628   1.414       .  A
C628        C629   1.520       .  S
C629        F633   1.385       .  S
C629        F634   1.381       .  S
C629        F635   1.384       .  S
C632        F636   1.382       .  S
C632        F637   1.383       .  S
C632        F638   1.385   1_545  S
C639        C640   1.410       .  A
C639        C644   1.414       .  A
C639        H646   1.082       .  S
C640        C641   1.420       .  A
C641        C642   1.408       .  A
C641        C648   1.520       .  S
C642        C643   1.411       .  A
C642        H647   1.082       .  S
C643        C644   1.424       .  A
C644        C645   1.519       .  S
C645        F649   1.384       .  S
C645        F650   1.382       .  S
C645        F651   1.382       .  S
C648        F652   1.383       .  S
C648        F653   1.384       .  S
C648        F654   1.385       .  S
C655        C656   1.413       .  A
C655        C660   1.410       .  A
C655        H662   1.082       .  S
C656        C657   1.423       .  A
C657        C658   1.414       .  A
C657        C664   1.519       .  S
C658        C659   1.407       .  A
C658        H663   1.083       .  S
C659        C660   1.414       .  A
C660        C661   1.519       .  S
C661        F665   1.384       .  S
C661        F666   1.382       .  S
C661        F667   1.384       .  S
C664        F668   1.382       .  S
C664        F669   1.384       .  S
C664        F670   1.385       .  S
C671        C672   1.406   1_545  A
C671        C676   1.409       .  A
C671        H678   1.083       .  S
C672        C673   1.426       .  A
C673        C674   1.403       .  A
C673        C680   1.523       .  S
C674        C675   1.394   1_565  A
C674        H679   1.084       .  S
C675        C676   1.413       .  A
C676        C677   1.518       .  S
C677        F681   1.384       .  S
C677        F682   1.383       .  S
C677        F683   1.384       .  S
C680        F684   1.384       .  S
C680        F685   1.382       .  S
C680        F686   1.385       .  S
C687        C688   1.397       .  A
C687        C692   1.409       .  A
C687        H694   1.084       .  S
C688        C689   1.414       .  A
C689        C690   1.408       .  A
C689        C696   1.511       .  S
C690        C691   1.403       .  A
C690        H695   1.084       .  S
C691        C692   1.433       .  A
C692        C693   1.525       .  S
C693        F697   1.384       .  S
C693        F698   1.384       .  S
C693        F699   1.384       .  S
C696        F700   1.384       .  S
C696        F701   1.382       .  S
C696        F702   1.383       .  S
C703        C704   1.408       .  A
C703        C708   1.417       .  A
C703        H710   1.083       .  S
C704        C705   1.412       .  A
C705        C706   1.409       .  A
C705        C712   1.519       .  S
C706        C707   1.412       .  A
C706        H711   1.083       .  S
C707        C708   1.419       .  A
C708        C709   1.516       .  S
C709        F713   1.385       .  S
C709        F714   1.381       .  S
C709        F715   1.383       .  S
C712        F716   1.384       .  S
C712        F717   1.383       .  S
C712        F718   1.385       .  S
C719        C720   1.413       .  A
C719        C724   1.412       .  A
C719        H726   1.083       .  S
C720        C721   1.414       .  A
C721        C722   1.409       .  A
C721        C728   1.517       .  S
C722        C723   1.410       .  A
C722        H727   1.083       .  S
C723        C724   1.416       .  A
C724        C725   1.519       .  S
C725        F729   1.385       .  S
C725        F730   1.383       .  S
C725        F731   1.382       .  S
C728        F732   1.383       .  S
C728        F733   1.382       .  S
C728        F734   1.385       .  S
C735        C736   1.407       .  A
C735        C740   1.410       .  A
C735        H742   1.084       .  S
C736        C737   1.416       .  A
C737        C738   1.412       .  A
C737        C744   1.517       .  S
C738        C739   1.406       .  A
C738        H743   1.084       .  S
C739        C740   1.417       .  A
C740        C741   1.519       .  S
C741        F745   1.384       .  S
C741        F746   1.382       .  S
C741        F747   1.384       .  S
C744        F748   1.382       .  S
C744        F749   1.383       .  S
C744        F750   1.384       .  S
C751        C752   1.397       .  A
C751        C756   1.411       .  A
C751        H758   1.084       .  S
C752        C753   1.418       .  A
C753        C754   1.411       .  A
C753        C760   1.518       .  S
C754        C755   1.408       .  A
C754        H759   1.084       .  S
C755        C756   1.433       .  A
C756        C757   1.523       .  S
C757        F761   1.384       .  S
C757        F762   1.384       .  S
C757        F763   1.383       .  S
C760        F764   1.383       .  S
C760        F765   1.384       .  S
C760        F766   1.383       .  S
C767        C768   1.410       .  A
C767        C772   1.414       .  A
C767        H774   1.082       .  S
C768        C769   1.419       .  A
C769        C770   1.417       .  A
C769        C776   1.518       .  S
C770        C771   1.409       .  A
C770        H775   1.083       .  S
C771        C772   1.418       .  A
C772        C773   1.519       .  S
C773        F777   1.385       .  S
C773        F778   1.382       .  S
C773        F779   1.383       .  S
C776        F780   1.383       .  S
C776        F781   1.384   1_556  S
C776        F782   1.384       .  S
C783        C784   1.405       .  A
C783        C788   1.415       .  A
C783        H790   1.083       .  S
C784        C785   1.412       .  A
C785        C786   1.410       .  A
C785        C792   1.514       .  S
C786        C787   1.412       .  A
C786        H791   1.083       .  S
C787        C788   1.429       .  A
C788        C789   1.522       .  S
C789        F793   1.385       .  S
C789        F794   1.383       .  S
C789        F795   1.384       .  S
C792        F796   1.383       .  S
C792        F797   1.382       .  S
C792        F798   1.384       .  S
C799        C800   1.413       .  A
C799        C804   1.423       .  A
C799        H806   1.083       .  S
C800        C801   1.414       .  A
C801        C802   1.404       .  A
C801        C808   1.516       .  S
C802        C803   1.406       .  A
C802        H807   1.083       .  S
C803        C804   1.419       .  A
C804        C805   1.516       .  S
C805        F809   1.385   1_455  S
C805        F810   1.383       .  S
C805        F811   1.383       .  S
C808        F812   1.383   1_554  S
C808        F813   1.377       .  S
C808        F814   1.384       .  S
C815        C816   1.414       .  A
C815        C820   1.408       .  A
C815        H822   1.082       .  S
C816        C817   1.421       .  A
C817        C818   1.420       .  A
C817        C824   1.517       .  S
C818        C819   1.412       .  A
C818        H823   1.083       .  S
C819        C820   1.414       .  A
C820        C821   1.521       .  S
C821        F825   1.383       .  S
C821        F826   1.381       .  S
C821        F827   1.385       .  S
C824        F828   1.383       .  S
C824        F829   1.384       .  S
C824        F830   1.384   1_565  S
C831        C832   1.408       .  A
C831        C836   1.400   1_455  A
C831        H838   1.084       .  S
C832        C833   1.424   1_455  A
C833        C834   1.398       .  A
C833        C840   1.521       .  S
C834        C835   1.393       .  A
C834        H839   1.085       .  S
C835        C836   1.408       .  A
C836        C837   1.519       .  S
C837        F841   1.385   1_655  S
C837        F842   1.383       .  S
C837        F843   1.384       .  S
C840        F844   1.383       .  S
C840        F845   1.383   1_655  S
C840        F846   1.385       .  S
C847        C848   1.399       .  A
C847        C852   1.402       .  A
C847        H854   1.084       .  S
C848        C849   1.414       .  A
C849        C850   1.399       .  A
C849        C856   1.519       .  S
C850        C851   1.401       .  A
C850        H855   1.084   1_545  S
C851        C852   1.418       .  A
C852        C853   1.521       .  S
C853        F857   1.385       .  S
C853        F858   1.383       .  S
C853        F859   1.383   1_545  S
C856        F860   1.382       .  S
C856        F861   1.383       .  S
C856        F862   1.385       .  S
C863        C864   1.409       .  A
C863        C868   1.418       .  A
C863        H870   1.083       .  S
C864        C865   1.422       .  A
C865        C866   1.407       .  A
C865        C872   1.523       .  S
C866        C867   1.407       .  A
C866        H871   1.084       .  S
C867        C868   1.418       .  A
C868        C869   1.516       .  S
C869        F873   1.384       .  S
C869        F874   1.382       .  S
C869        F875   1.384       .  S
C872        F876   1.384       .  S
C872        F877   1.382   1_556  S
C872        F878   1.385       .  S
C879        C880   1.410       .  A
C879        C884   1.408       .  A
C879        H886   1.083       .  S
C880        C881   1.417       .  A
C881        C882   1.415       .  A
C881        C888   1.516       .  S
C882        C883   1.408       .  A
C882        H887   1.083       .  S
C883        C884   1.411       .  A
C884        C885   1.516       .  S
C885        F889   1.384       .  S
C885        F890   1.383       .  S
C885        F891   1.384   1_554  S
C888        F892   1.383       .  S
C888        F893   1.383       .  S
C888        F894   1.384       .  S
C895        C896   1.399       .  A
C895        C900   1.402       .  A
C895        H902   1.083       .  S
C896        C897   1.423       .  A
C897        C898   1.398       .  A
C897        C904   1.515       .  S
C898        C899   1.398       .  A
C898        H903   1.084       .  S
C899        C900   1.426       .  A
C900        C901   1.516       .  S
C901        F905   1.385       .  S
C901        F906   1.385       .  S
C901        F907   1.382       .  S
C904        F908   1.384       .  S
C904        F909   1.382       .  S
C904        F910   1.383       .  S
C911        C912   1.406       .  A
C911        C916   1.416       .  A
C911        H918   1.083       .  S
C912        C913   1.419       .  A
C913        C914   1.416       .  A
C913        C920   1.519       .  S
C914        C915   1.408       .  A
C914        H919   1.083       .  S
C915        C916   1.422       .  A
C916        C917   1.517       .  S
C917        F921   1.385       .  S
C917        F922   1.384       .  S
C917        F923   1.382       .  S
C920        F924   1.384       .  S
C920        F925   1.381       .  S
C920        F926   1.384       .  S
C927        C928   1.403       .  A
C927        C932   1.412       .  A
C927        H934   1.084       .  S
C928        C929   1.417       .  A
C929        C930   1.419       .  A
C929        C936   1.516       .  S
C930        C931   1.410       .  A
C930        H935   1.083       .  S
C931        C932   1.419       .  A
C932        C933   1.517       .  S
C933        F937   1.383       .  S
C933        F938   1.380       .  S
C933        F939   1.384       .  S
C936        F940   1.383       .  S
C936        F941   1.383       .  S
C936        F942   1.384       .  S
C943        C944   1.403       .  A
C943        C948   1.417       .  A
C943        H950   1.083       .  S
C944        C945   1.420       .  A
C945        C946   1.420       .  A
C945        C952   1.517       .  S
C946        C947   1.410       .  A
C946        H951   1.083       .  S
C947        C948   1.424       .  A
C948        C949   1.519       .  S
C949        F953   1.385       .  S
C949        F954   1.382       .  S
C949        F955   1.384       .  S
C952        F956   1.382       .  S
C952        F957   1.382       .  S
C952        F958   1.385       .  S
