geometry optimzed in LAMMPS
_audit_creation_date              2020-11-30 
_audit_creation_method            'lammps2cif' 
_symmetry_space_group_name_H-M    'P1' 
_symmetry_Int_Tables_number       1 
_symmetry_cell_setting            triclinic 
loop_ 
_symmetry_equiv_pos_as_xyz 
  x,y,z 
_cell_length_a                    35.35307086 
_cell_length_b                    35.42556967091936 
_cell_length_c                    52.9864970572032 
_cell_angle_alpha                 89.95682530212245 
_cell_angle_beta                  90.02436210287269 
_cell_angle_gamma                 119.97678753801976 
loop_ 
_atom_site_label 
_atom_site_type_symbol 
_atom_site_fract_x 
_atom_site_fract_y 
_atom_site_fract_z 
_atom_site_charge 
O1          O  0.02256948  0.07321793  0.33144234    -0.73100
O2          O  0.91310197  0.95617548  0.33413137    -0.74100
O3          O  0.96891909  0.01747776  0.37055932    -0.62700
O4          O  0.96636630  0.01183049  0.29497792    -0.71100
O5          O  0.00770957  0.98105952  0.29570209    -0.70700
O6          O  0.00790899  0.98423485  0.37171736    -0.61900
O7          O  0.95313244  0.92399861  0.33429767    -0.74400
O8          O  0.06242350  0.04091154  0.33309263    -0.73200
Cu9        Cu  0.96638236  0.01579915  0.33274241     1.04600
Cu10       Cu  0.00918046  0.98141099  0.33373472     1.04300
C11         C  0.05987079  0.07560983  0.33202047     0.93100
C12         C  0.91579077  0.92150642  0.33447930     0.92200
C13         C  0.98862082  0.00167972  0.38316319     0.84400
C14         C  0.98666630  0.99569755  0.28334147     0.90600
O15         O  0.06266334  0.52934104  0.33181069    -0.73100
O16         O  0.94735224  0.41709850  0.33161767    -0.74100
O17         O  0.00389847  0.47563500  0.29380863    -0.62700
O18         O  0.00701206  0.47133342  0.36950741    -0.71100
O19         O  0.97268030  0.50917761  0.37185200    -0.70700
O20         O  0.96806515  0.51207679  0.29595074    -0.61900
O21         O  0.91299531  0.45489237  0.33419143    -0.74400
O22         O  0.02775218  0.56667317  0.33364228    -0.73200
Cu23       Cu  0.00637701  0.47198555  0.33158879     1.04600
Cu24       Cu  0.96914475  0.51195967  0.33398501     1.04300
C25         C  0.06343124  0.56579172  0.33278231     0.93100
C26         C  0.91183529  0.41830379  0.33297518     0.92200
C27         C  0.98570809  0.49465023  0.28288683     0.84400
C28         C  0.99077956  0.48997726  0.38269959     0.90600
O29         O  0.52907770  0.06750833  0.33331153    -0.73100
O30         O  0.41096632  0.95955517  0.32862044    -0.74100
O31         O  0.46721061  0.00908963  0.36884118    -0.62700
O32         O  0.47265943  0.01749155  0.29287863    -0.71100
O33         O  0.50561545  0.97821787  0.29199771    -0.70700
O34         O  0.49788594  0.96774229  0.36754937    -0.61900
O35         O  0.44279035  0.91928087  0.32700641    -0.74400
O36         O  0.56074647  0.02705107  0.33276371    -0.73200
Cu37       Cu  0.46894046  0.01489339  0.33092482     1.04600
Cu38       Cu  0.50287406  0.97172138  0.32976338     1.04300
C39         C  0.56359420  0.06442723  0.33402116     0.93100
C40         C  0.40818471  0.92223348  0.32719057     0.92200
C41         C  0.48132170  0.98665818  0.38018602     0.84400
C42         C  0.48987852  0.99896742  0.28042092     0.90600
O43         O  0.50940989  0.47738713  0.29933388    -0.73100
O44         O  0.50840818  0.48484289  0.37472268    -0.74100
O45         O  0.45319927  0.42279762  0.33819679    -0.62700
O46         O  0.56385909  0.53917632  0.33567416    -0.71100
O47         O  0.52443316  0.57188238  0.33329261    -0.70700
O48         O  0.41432423  0.45602220  0.33524315    -0.61900
O49         O  0.46866482  0.51720399  0.37230116    -0.74400
O50         O  0.47014476  0.51023954  0.29644685    -0.73200
Cu51       Cu  0.51001616  0.47984935  0.33709404     1.04600
Cu52       Cu  0.46801928  0.51496882  0.33424688     1.04300
C53         C  0.49033141  0.49290920  0.28592509     0.93100
C54         C  0.48856899  0.50225953  0.38551293     0.92200
C55         C  0.41620474  0.42102985  0.33693396     0.84400
C56         C  0.56158176  0.57400236  0.33402182     0.90600
O57         O  0.03336017  0.05023557  0.03897598    -0.73100
O58         O  0.03324525  0.05109111  0.96299668    -0.74100
O59         O  0.97687439  0.05177261  0.00104050    -0.62700
O60         O  0.08936244  0.05004173  0.00085039    -0.71100
O61         O  0.05279522  0.97780580  0.00090479    -0.70700
O62         O  0.93987951  0.97955268  0.00047480    -0.61900
O63         O  0.99668379  0.97885762  0.96290662    -0.74400
O64         O  0.99556944  0.97799181  0.03855805    -0.73200
Cu65       Cu  0.03444459  0.05329436  0.00099160     1.04600
Cu66       Cu  0.99492609  0.97605388  0.00071952     1.04300
C67         C  0.01455870  0.01386202  0.05076821     0.93100
C68         C  0.01520937  0.01500296  0.95092591     0.92200
C69         C  0.94050131  0.01595816  0.00061278     0.84400
C70         C  0.08904382  0.01382116  0.00082207     0.90600
O71         O  0.09637758  0.56298204  0.99937168    -0.73100
O72         O  0.98193750  0.56002087  0.00236717    -0.74100
O73         O  0.04096456  0.56051445  0.03877620    -0.62700
O74         O  0.03696178  0.56174408  0.96274688    -0.71100
O75         O  0.00224950  0.48953743  0.96260434    -0.70700
O76         O  0.00507202  0.48824219  0.03823451    -0.61900
O77         O  0.94647761  0.48779016  0.00166043    -0.74400
O78         O  0.06177595  0.49074954  0.99904185    -0.73200
Cu79       Cu  0.04027604  0.56380481  0.00081117     1.04600
Cu80       Cu  0.00274203  0.48656112  0.00036458     1.04300
C81         C  0.09734529  0.52744709  0.99876032     0.93100
C82         C  0.94612289  0.52368356  0.00260431     0.92200
C83         C  0.02308955  0.52407357  0.05050798     0.84400
C84         C  0.01891085  0.52566686  0.95064572     0.90600
O85         O  0.52618994  0.02953107  0.03378970    -0.73100
O86         O  0.51430548  0.02087920  0.95826387    -0.74100
O87         O  0.46329284  0.02508967  0.99847677    -0.62700
O88         O  0.57676096  0.02506668  0.99352913    -0.71100
O89         O  0.54073892  0.95303724  0.99670355    -0.70700
O90         O  0.42743021  0.95295764  0.00075736    -0.61900
O91         O  0.47870262  0.94878796  0.96085268    -0.74400
O92         O  0.48894680  0.95742282  0.03661182    -0.73200
Cu93       Cu  0.52137955  0.02763833  0.99591554     1.04600
Cu94       Cu  0.48276625  0.95055430  0.99882451     1.04300
C95         C  0.50911431  0.99485678  0.04716931     0.93100
C96         C  0.49469094  0.98356183  0.94756575     0.92200
C97         C  0.42735292  0.98897590  0.00033453     0.84400
C98         C  0.57670695  0.98898006  0.99441735     0.90600
O99         O  0.58472960  0.53690514  0.00689846    -0.73100
O100        O  0.47274092  0.53973599  0.00221851    -0.74100
O101        O  0.52286819  0.53381421  0.04240946    -0.62700
O102        O  0.53471628  0.54259380  0.96680183    -0.71100
O103        O  0.49816342  0.47048090  0.96428439    -0.70700
O104        O  0.48421020  0.46177051  0.03941498    -0.61900
O105        O  0.43583960  0.46774484  0.99874076    -0.74400
O106        O  0.54728763  0.46476268  0.00484321    -0.73200
Cu107      Cu  0.53008885  0.54080821  0.00470867     1.04600
Cu108      Cu  0.49015885  0.46372850  0.00175043     1.04300
C109        C  0.58374971  0.50035564  0.00641954     0.93100
C110        C  0.43653363  0.50412804  0.99963262     0.92200
C111        C  0.50109793  0.49635912  0.05281080     0.84400
C112        C  0.51835570  0.50776187  0.95358229     0.90600
O113        O  0.04073461  0.07137690  0.66909127    -0.73100
O114        O  0.03415086  0.95434444  0.66712583    -0.74100
O115        O  0.03993870  0.01538954  0.63024584    -0.62700
O116        O  0.03559449  0.01037605  0.70590804    -0.71100
O117        O  0.96330589  0.97679431  0.70462125    -0.70700
O118        O  0.96774219  0.98325500  0.62872730    -0.61900
O119        O  0.96196026  0.92196452  0.66527790    -0.74400
O120        O  0.96844664  0.03789286  0.66805356    -0.73200
Cu121      Cu  0.04014318  0.01404889  0.66813456     1.04600
Cu122      Cu  0.96290014  0.97887835  0.66662745     1.04300
C123        C  0.00537900  0.07301281  0.66892577     0.93100
C124        C  0.99683317  0.91959681  0.66586066     0.92200
C125        C  0.00464469  0.00015762  0.61746653     0.84400
C126        C  0.99880465  0.99253868  0.71728110     0.90600
O127        O  0.95053180  0.41585598  0.66722457    -0.73100
O128        O  0.95748284  0.53302020  0.66840135    -0.74100
O129        O  0.95186428  0.47446386  0.63005951    -0.62700
O130        O  0.95530599  0.47405562  0.70555024    -0.71100
O131        O  0.02761237  0.50736128  0.70480145    -0.70700
O132        O  0.02408001  0.50707843  0.62857812    -0.61900
O133        O  0.02971194  0.56538155  0.66720889    -0.74400
O134        O  0.02281376  0.44913601  0.66623736    -0.73200
Cu135      Cu  0.95130473  0.47320552  0.66784110     1.04600
Cu136      Cu  0.02856147  0.50834343  0.66665552     1.04300
C137        C  0.98578572  0.41406842  0.66658512     0.93100
C138        C  0.99487354  0.56778623  0.66805798     0.92200
C139        C  0.98720631  0.49080863  0.61728580     0.84400
C140        C  0.99178029  0.49074269  0.71720325     0.90600
O141        O  0.45848954  0.97484769  0.70225437    -0.73100
O142        O  0.45316652  0.97399533  0.62616785    -0.74100
O143        O  0.45438736  0.91725510  0.66375070    -0.62700
O144        O  0.45675304  0.03146768  0.66492736    -0.71100
O145        O  0.52910332  0.06699017  0.66395936    -0.70700
O146        O  0.52662987  0.95193051  0.66137815    -0.61900
O147        O  0.52554264  0.01057891  0.62482925    -0.74400
O148        O  0.53075699  0.00902136  0.70035847    -0.73200
Cu149      Cu  0.45319951  0.97316585  0.66430445     1.04600
Cu150      Cu  0.53051469  0.01079154  0.66254253     1.04300
C151        C  0.49559086  0.99212444  0.71332896     0.93100
C152        C  0.48871420  0.99267909  0.61349915     0.92200
C153        C  0.49000148  0.91634256  0.66247331     0.84400
C154        C  0.49310740  0.06731343  0.66489400     0.90600
O155        O  0.47665415  0.48220796  0.70699436    -0.73100
O156        O  0.47852633  0.48701197  0.63128903    -0.74100
O157        O  0.47897576  0.42839320  0.66826868    -0.62700
O158        O  0.47654068  0.54091463  0.67032351    -0.71100
O159        O  0.54889859  0.57773215  0.67106320    -0.70700
O160        O  0.55133523  0.46582850  0.66882014    -0.61900
O161        O  0.55088251  0.52410526  0.63194195    -0.74400
O162        O  0.54901587  0.51942509  0.70782665    -0.73200
Cu163      Cu  0.47514990  0.48332166  0.66916915     1.04600
Cu164      Cu  0.55251472  0.52303868  0.66990896     1.04300
C165        C  0.51242684  0.49987273  0.71941941     0.93100
C166        C  0.51499975  0.50658943  0.61959089     0.92200
C167        C  0.51563574  0.42935403  0.66854470     0.84400
C168        C  0.51248931  0.57720425  0.67102325     0.90600
C169        C  0.48851660  0.87375361  0.66257656    -0.03400
C170        C  0.44868344  0.83495879  0.66633934    -0.06000
C171        C  0.44708385  0.79475045  0.66692033    -0.21100
C172        C  0.48520749  0.79227565  0.66396096     0.24700
C173        C  0.52505671  0.83101313  0.65978363    -0.18600
C174        C  0.52666677  0.87131284  0.65919435    -0.08600
C175        C  0.48169107  0.74863875  0.66451064    -0.18900
C176        C  0.51503432  0.74236455  0.67097285    -0.23700
C177        C  0.51257008  0.69909221  0.67136723     0.26700
C178        C  0.55177435  0.69824100  0.67296386    -0.20400
C179        C  0.55167778  0.65875727  0.67301264    -0.10100
C180        C  0.51223388  0.61893617  0.67160306    -0.10600
C181        C  0.47282966  0.61955827  0.67051535    -0.03600
C182        C  0.47290835  0.65913051  0.67045528    -0.18700
H183        H  0.41864782  0.83561711  0.66898982     0.10400
H184        H  0.41592897  0.76543557  0.66993876     0.10500
H185        H  0.55493507  0.83039580  0.65651754     0.10200
H186        H  0.55777771  0.90053987  0.65597753     0.11300
H187        H  0.45010737  0.72103162  0.65982864     0.11400
H188        H  0.54617467  0.77038447  0.67605680     0.13300
H189        H  0.58278599  0.72835876  0.67391154     0.09800
H190        H  0.58264100  0.65950717  0.67402714     0.11900
H191        H  0.44185193  0.58942806  0.66963294     0.08500
H192        H  0.44175640  0.65786220  0.66993313     0.11200
C193        C  0.51694609  0.38816141  0.66899087    -0.03400
C194        C  0.55678157  0.38876420  0.66617952    -0.06000
C195        C  0.55831600  0.35011481  0.66728636    -0.21100
C196        C  0.52014189  0.30991394  0.67110864     0.24700
C197        C  0.48027940  0.30933688  0.67427234    -0.18600
C198        C  0.47872453  0.34801184  0.67307319    -0.08600
C199        C  0.52358556  0.26970924  0.67219460    -0.18900
C200        C  0.48983127  0.22951312  0.66740447    -0.23700
C201        C  0.49253766  0.18883463  0.66759340     0.26700
C202        C  0.45334483  0.14874773  0.66735747    -0.20400
C203        C  0.45361246  0.10947432  0.66662912    -0.10100
C204        C  0.49321040  0.10921136  0.66598691    -0.10600
C205        C  0.53257764  0.14924317  0.66631202    -0.03600
C206        C  0.53232886  0.18865470  0.66705426    -0.18700
H207        H  0.58687978  0.41915852  0.66313063     0.10400
H208        H  0.58949141  0.35161383  0.66498845     0.10500
H209        H  0.45030476  0.27937265  0.67818314     0.10200
H210        H  0.44763708  0.34652173  0.67574451     0.11300
H211        H  0.55550415  0.27404087  0.67643763     0.11400
H212        H  0.45824053  0.22578220  0.66280518     0.13300
H213        H  0.42221535  0.14775926  0.66766702     0.09800
H214        H  0.42265951  0.07926662  0.66642364     0.11900
H215        H  0.56365175  0.15016516  0.66577465     0.08500
H216        H  0.56338959  0.21856543  0.66665645     0.11200
C217        C  0.99366113  0.87629118  0.66508824    -0.03400
C218        C  0.95294758  0.83839605  0.66167230    -0.06000
C219        C  0.94967391  0.79745426  0.66092755    -0.21100
C220        C  0.98684476  0.79324656  0.66381810     0.24700
C221        C  0.02775208  0.83123339  0.66702233    -0.18600
C222        C  0.03104163  0.87226719  0.66769586    -0.08600
C223        C  0.98142734  0.74883502  0.66260164    -0.18900
C224        C  0.01067942  0.73862707  0.67188449    -0.23700
C225        C  0.00520809  0.69424403  0.67046407     0.26700
C226        C  0.04258139  0.69010278  0.67194286    -0.20400
C227        C  0.03919554  0.64912649  0.67095965    -0.10100
C228        C  0.99817973  0.61115388  0.66877774    -0.10600
C229        C  0.96062232  0.61514721  0.66758665    -0.03600
C230        C  0.96403380  0.65623043  0.66844740    -0.18700
H231        H  0.92349950  0.84031729  0.65947663     0.10400
H232        H  0.91784155  0.76886435  0.65822011     0.10500
H233        H  0.05747358  0.82976598  0.66852670     0.10200
H234        H  0.06291621  0.90085831  0.67018980     0.11300
H235        H  0.95176797  0.72362889  0.65384617     0.11400
H236        H  0.04044790  0.76371657  0.68057921     0.13300
H237        H  0.07463097  0.71876424  0.67371667     0.09800
H238        H  0.06878840  0.64723154  0.67207543     0.11900
H239        H  0.92853324  0.58650073  0.66609355     0.08500
H240        H  0.93428697  0.65781949  0.66806632     0.11200
C241        C  0.98403992  0.37135990  0.66626847    -0.03400
C242        C  0.94392385  0.33217825  0.66736521    -0.06000
C243        C  0.94263698  0.29204656  0.66708102    -0.21100
C244        C  0.98133193  0.29010577  0.66588446     0.24700
C245        C  0.02147189  0.32935690  0.66448595    -0.18600
C246        C  0.02275488  0.36944002  0.66477031    -0.08600
C247        C  0.97823231  0.24661782  0.66521167    -0.18900
C248        C  0.01130176  0.23977779  0.67163764    -0.23700
C249        C  0.00858496  0.19640902  0.67083063     0.26700
C250        C  0.04752035  0.19482529  0.67156441    -0.20400
C251        C  0.04669715  0.15490925  0.67092821    -0.10100
C252        C  0.00678226  0.11555242  0.66969422    -0.10600
C253        C  0.96779920  0.11706526  0.66926345    -0.03600
C254        C  0.96860276  0.15689357  0.66991774    -0.18700
H255        H  0.91348920  0.33248207  0.66844274     0.10400
H256        H  0.91124465  0.26235262  0.66793465     0.10500
H257        H  0.05198817  0.32949949  0.66263992     0.10200
H258        H  0.05420204  0.39899488  0.66363318     0.11300
H259        H  0.94714536  0.21946364  0.65935526     0.11400
H260        H  0.04219616  0.26710560  0.67765818     0.13300
H261        H  0.07878644  0.22465310  0.67248386     0.09800
H262        H  0.07731936  0.15490704  0.67139871     0.11900
H263        H  0.93644072  0.08734538  0.66853293     0.08500
H264        H  0.93769030  0.15614754  0.67013255     0.11200
C265        C  0.52260895  0.51034038  0.92574867    -0.03400
C266        C  0.54926258  0.55034829  0.91361660    -0.06000
C267        C  0.55311520  0.55242272  0.88730471    -0.21100
C268        C  0.53007227  0.51473613  0.87254497     0.24700
C269        C  0.50386964  0.47458633  0.88475030    -0.18600
C270        C  0.50011304  0.47250097  0.91101837    -0.08600
C271        C  0.53487923  0.51843230  0.84461493    -0.18900
C272        C  0.50491614  0.48920827  0.82862077    -0.23700
C273        C  0.50837167  0.49298290  0.80066219     0.26700
C274        C  0.47020842  0.46943275  0.78632348    -0.20400
C275        C  0.47155004  0.47178621  0.76000619    -0.10100
C276        C  0.51128046  0.49746938  0.74734300    -0.10600
C277        C  0.54971244  0.52048710  0.76162173    -0.03600
C278        C  0.54834423  0.51826171  0.78800918    -0.18700
H279        H  0.56728790  0.58004085  0.92444611     0.10400
H280        H  0.57388694  0.58368317  0.87842456     0.10500
H281        H  0.48674827  0.44450726  0.87423131     0.10200
H282        H  0.47954929  0.44110646  0.91979135     0.11300
H283        H  0.56286860  0.54749000  0.83715155     0.11400
H284        H  0.47505152  0.46232850  0.83618281     0.13300
H285        H  0.43906592  0.44933503  0.79553927     0.09800
H286        H  0.44139424  0.45332827  0.74958190     0.11900
H287        H  0.58089977  0.54026425  0.75240862     0.08500
H288        H  0.57872453  0.53582594  0.79827240     0.11200
C289        C  0.49046741  0.98076622  0.91967599    -0.03400
C290        C  0.46460243  0.94045404  0.90765149    -0.06000
C291        C  0.46042875  0.93809120  0.88134545    -0.21100
C292        C  0.48249814  0.97575844  0.86646470     0.24700
C293        C  0.50807389  0.01616195  0.87849043    -0.18600
C294        C  0.51198245  0.01858267  0.90478207    -0.08600
C295        C  0.47717512  0.97202955  0.83858306    -0.18900
C296        C  0.50804062  0.99989000  0.82250007    -0.23700
C297        C  0.50353956  0.99621222  0.79459137     0.26700
C298        C  0.54148832  0.01390096  0.77979710    -0.20400
C299        C  0.53885892  0.01211906  0.75347184    -0.10100
C300        C  0.49809518  0.99299775  0.74128275    -0.10600
C301        C  0.46002441  0.97554252  0.75607987    -0.03600
C302        C  0.46267092  0.97715276  0.78246176    -0.18700
H303        H  0.44735376  0.91074915  0.91856730     0.10400
H304        H  0.44017910  0.90662683  0.87255562     0.10500
H305        H  0.52446467  0.04607206  0.86772398     0.10200
H306        H  0.53188913  0.05020307  0.91344857     0.11300
H307        H  0.44796403  0.94406159  0.83116449     0.11400
H308        H  0.53903901  0.02522936  0.82997520     0.13300
H309        H  0.57337491  0.02905948  0.78866318     0.09800
H310        H  0.56884975  0.02600609  0.74267530     0.11900
H311        H  0.42813725  0.96096287  0.74727684     0.08500
H312        H  0.43276023  0.96433610  0.79322364     0.11200
C313        C  0.90422421  0.52347155  0.00419083    -0.03400
C314        C  0.90397965  0.56273409  0.00727579    -0.06000
C315        C  0.86462720  0.56278640  0.00914247    -0.21100
C316        C  0.82453870  0.52373196  0.00779895     0.24700
C317        C  0.82473228  0.48427712  0.00487075    -0.18600
C318        C  0.86418889  0.48423770  0.00303782    -0.08600
C319        C  0.78375695  0.52597467  0.01008877    -0.18900
C320        C  0.74386267  0.49345991  0.00350754    -0.23700
C321        C  0.70362765  0.49663260  0.00551083     0.26700
C322        C  0.66321496  0.45803223  0.00729795    -0.20400
C323        C  0.62435429  0.45926881  0.00816531    -0.10100
C324        C  0.62504411  0.49923733  0.00707165    -0.10600
C325        C  0.66551188  0.53797711  0.00543782    -0.08400
C326        C  0.70440089  0.53673614  0.00454657    -0.18700
H327        H  0.93425224  0.59353725  0.00839080     0.10400
H328        H  0.86554283  0.59360040  0.01155758     0.10500
H329        H  0.79481747  0.45323261  0.00443463     0.10200
H330        H  0.86331017  0.45341534  0.00085424     0.11300
H331        H  0.78715155  0.55614748  0.01733809     0.11400
H332        H  0.73985067  0.46292767  0.99654401     0.13300
H333        H  0.66169162  0.42673311  0.00792771     0.09800
H334        H  0.59372579  0.42883032  0.00939030     0.11900
H335        H  0.66712380  0.56926937  0.00426088     0.08500
H336        H  0.73470383  0.56716013  0.00233601     0.11200
C337        C  0.39505480  0.50473285  0.99788401    -0.03400
C338        C  0.35588670  0.46627887  0.99242045    -0.06000
C339        C  0.31637780  0.46617821  0.99169850    -0.21100
C340        C  0.31493951  0.50443192  0.99634189     0.24700
C341        C  0.35425442  0.54315218  0.00160628    -0.18600
C342        C  0.39389414  0.54326538  0.00225257    -0.08600
C343        C  0.27149420  0.50155280  0.99663746    -0.18900
C344        C  0.26540417  0.53611534  0.99498798    -0.23700
C345        C  0.22162011  0.53253720  0.99578816     0.26700
C346        C  0.21917277  0.56991897  0.00155731    -0.20400
C347        C  0.17886483  0.56826010  0.00251281    -0.10100
C348        C  0.13996763  0.52906629  0.99772038    -0.10600
C349        C  0.14230307  0.49170935  0.99168960    -0.03600
C350        C  0.18265125  0.49343188  0.99052909    -0.18700
H351        H  0.35564067  0.43605329  0.98888028     0.10400
H352        H  0.28667912  0.43589692  0.98765048     0.10500
H353        H  0.35471012  0.57317440  0.00593081     0.10200
H354        H  0.42351466  0.57336147  0.00667957     0.11300
H355        H  0.24343699  0.46911941  0.99840268     0.11400
H356        H  0.29339511  0.56864409  0.99340380     0.13300
H357        H  0.24857784  0.60052215  0.00550983     0.09800
H358        H  0.17817369  0.59766515  0.00718604     0.11900
H359        H  0.11294510  0.46121020  0.98752459     0.08500
H360        H  0.18287829  0.46417497  0.98506858     0.11200
C361        C  0.01738985  0.52542298  0.92266377    -0.03400
C362        C  0.03640143  0.56457966  0.90889513    -0.06000
C363        C  0.03593749  0.56400473  0.88247659    -0.21100
C364        C  0.01614965  0.52437707  0.86923193     0.24700
C365        C  0.99695719  0.48517222  0.88302743    -0.18600
C366        C  0.99747351  0.48574351  0.90940407    -0.08600
C367        C  0.01796532  0.52520196  0.84115811    -0.18900
C368        C  0.98953578  0.49185538  0.82658334    -0.23700
C369        C  0.99141193  0.49252502  0.79855142     0.26700
C370        C  0.95284784  0.46651559  0.78501867    -0.20400
C371        C  0.95307948  0.46596381  0.75865777    -0.10100
C372        C  0.99211334  0.49090096  0.74517925    -0.10600
C373        C  0.03099816  0.51622491  0.75870380    -0.03600
C374        C  0.03067928  0.51711321  0.78513138    -0.18700
H375        H  0.05203380  0.59570194  0.91851480     0.10400
H376        H  0.05118989  0.59466672  0.87233448     0.10500
H377        H  0.98252140  0.45394090  0.87362452     0.10200
H378        H  0.98272055  0.45496891  0.91940802     0.11300
H379        H  0.04259855  0.55505507  0.83226140     0.11400
H380        H  0.96229580  0.46368827  0.83532916     0.13300
H381        H  0.92228316  0.44688146  0.79488509     0.09800
H382        H  0.92259971  0.44583585  0.74882948     0.11900
H383        H  0.06162315  0.53560207  0.74886620     0.08500
H384        H  0.06129474  0.53649964  0.79494013     0.11200
C385        C  0.61847738  0.98880195  0.99294877    -0.03400
C386        C  0.61900075  0.94947856  0.99466368    -0.06000
C387        C  0.65844282  0.94935705  0.99375472    -0.21100
C388        C  0.69827391  0.98846965  0.99135715     0.24700
C389        C  0.69777060  0.02780984  0.98911385    -0.18600
C390        C  0.65827908  0.02792986  0.98996344    -0.08600
C391        C  0.73932446  0.98657014  0.99083758    -0.18900
C392        C  0.77850933  0.02000612  0.99779570    -0.23700
C393        C  0.81943845  0.01771978  0.99830548     0.26700
C394        C  0.85965148  0.05679627  0.99890296    -0.20400
C395        C  0.89895478  0.05631776  0.99970718    -0.10100
C396        C  0.89892135  0.01662519  0.00008833    -0.10600
C397        C  0.85871140  0.97749411  0.99982867    -0.03600
C398        C  0.81942509  0.97796058  0.99905533    -0.18700
H399        H  0.58893126  0.91873583  0.99684986     0.10400
H400        H  0.65787670  0.91857868  0.99528269     0.10500
H401        H  0.72759880  0.05848694  0.98634855     0.10200
H402        H  0.65895944  0.05872963  0.98827652     0.11300
H403        H  0.73642277  0.95583913  0.98518994     0.11400
H404        H  0.78108008  0.05060890  0.00349745     0.13300
H405        H  0.86068778  0.08788013  0.99860470     0.09800
H406        H  0.92936246  0.08707705  0.99997845     0.11900
H407        H  0.85752428  0.94636010  0.00034185     0.08500
H408        H  0.78937019  0.94703038  0.99953837     0.11200
C409        C  0.13098517  0.01390192  0.00055142    -0.03400
C410        C  0.17075048  0.05353601  0.00046557    -0.06000
C411        C  0.21043897  0.05397128  0.99976986    -0.21100
C412        C  0.21145346  0.01490865  0.99938989     0.24700
C413        C  0.17166750  0.97511734  0.99936698    -0.18600
C414        C  0.13186265  0.97467648  0.99999771    -0.08600
C415        C  0.25461366  0.01736367  0.99805816    -0.18900
C416        C  0.26169083  0.98520910  0.00585748    -0.23700
C417        C  0.30490141  0.98762855  0.00446868     0.26700
C418        C  0.30613216  0.94868555  0.00564266    -0.20400
C419        C  0.34582334  0.94913068  0.00431447    -0.10100
C420        C  0.38537091  0.98867574  0.00195783    -0.10600
C421        C  0.38432438  0.02778470  0.00120770    -0.03600
C422        C  0.34459562  0.02734812  0.00254033    -0.18700
H423        H  0.17128639  0.08436231  0.00080751     0.10400
H424        H  0.24055425  0.08504047  0.99961611     0.10500
H425        H  0.17095660  0.94429397  0.99827629     0.10200
H426        H  0.10178187  0.94360802  0.99981144     0.11300
H427        H  0.28146210  0.04730692  0.99062539     0.11400
H428        H  0.23469064  0.95536950  0.01333582     0.13300
H429        H  0.27617730  0.91768225  0.00737072     0.09800
H430        H  0.34546320  0.91840460  0.00509399     0.11900
H431        H  0.41425258  0.05882598  0.99966434     0.08500
H432        H  0.34548696  0.05828300  0.00246149     0.11200
C433        C  0.99740294  0.99014934  0.74522731    -0.03400
C434        C  0.95729653  0.96792297  0.75803855    -0.06000
C435        C  0.95604565  0.96600532  0.78441020    -0.21100
C436        C  0.99473659  0.98673452  0.79856408     0.24700
C437        C  0.03495480  0.00827482  0.78576930    -0.18600
C438        C  0.03623569  0.00997018  0.75939541    -0.08600
C439        C  0.99195590  0.98450511  0.82655442    -0.18900
C440        C  0.02218111  0.01555589  0.84162979    -0.23700
C441        C  0.01896906  0.01440358  0.86961896     0.26700
C442        C  0.04094223  0.05372991  0.88304914    -0.20400
C443        C  0.03931827  0.05405750  0.90941371    -0.10100
C444        C  0.01606745  0.01490298  0.92296112    -0.10600
C445        C  0.99436044  0.97545542  0.90952860    -0.03600
C446        C  0.99581960  0.97515532  0.88316093    -0.18700
H447        H  0.92680762  0.95198320  0.74769517     0.10400
H448        H  0.92468768  0.94878170  0.79380707     0.10500
H449        H  0.06551684  0.02336482  0.79601893     0.10200
H450        H  0.06770014  0.02692182  0.75011303     0.11300
H451        H  0.96266434  0.95788272  0.83482151     0.11400
H452        H  0.04921488  0.04431730  0.83318617     0.13300
H453        H  0.05929980  0.08437015  0.87308864     0.09800
H454        H  0.05660267  0.08497792  0.91917911     0.11900
H455        H  0.97645071  0.94467947  0.91939657     0.08500
H456        H  0.97956795  0.94407116  0.87355858     0.11200
C457        C  0.51568878  0.50914620  0.59163155    -0.03400
C458        C  0.55539590  0.52722503  0.57839878    -0.06000
C459        C  0.55603395  0.52924737  0.55203596    -0.21100
C460        C  0.51713592  0.51365399  0.53822993     0.24700
C461        C  0.47731338  0.49560495  0.55147823    -0.18600
C462        C  0.47667334  0.49348706  0.57786748    -0.08600
C463        C  0.51954260  0.51468861  0.51014717    -0.18900
C464        C  0.48725516  0.51078723  0.49485875    -0.23700
C465        C  0.48931036  0.50970372  0.46679917     0.26700
C466        C  0.46164251  0.51916494  0.45245306    -0.20400
C467        C  0.46158196  0.51716961  0.42606493    -0.10100
C468        C  0.48886237  0.50509280  0.41343331    -0.10600
C469        C  0.51632508  0.49530229  0.42776906    -0.03600
C470        C  0.51653839  0.49748867  0.45411238    -0.18700
H471        H  0.58604277  0.53951253  0.58839556     0.10400
H472        H  0.58713940  0.54296731  0.54236620     0.10500
H473        H  0.44644713  0.48206558  0.54166583     0.10200
H474        H  0.44550474  0.47926546  0.58748263     0.11300
H475        H  0.54988164  0.51998248  0.50187300     0.11400
H476        H  0.45848061  0.50948555  0.50299985     0.13300
H477        H  0.43997178  0.52816745  0.46170686     0.09800
H478        H  0.43983652  0.52464188  0.41557815     0.11900
H479        H  0.53761906  0.48571032  0.41862716     0.08500
H480        H  0.53732225  0.48850827  0.46435070     0.11200
C481        C  0.49486376  0.49292388  0.08045731    -0.03400
C482        C  0.45929591  0.45589639  0.09118543    -0.06000
C483        C  0.45263078  0.45303182  0.11728481    -0.21100
C484        C  0.48203539  0.48650658  0.13316809     0.24700
C485        C  0.51769065  0.52353823  0.12248162    -0.18600
C486        C  0.52383624  0.52684221  0.09633780    -0.08600
C487        C  0.47430164  0.48270627  0.16075037    -0.18900
C488        C  0.50725967  0.49693173  0.17742282    -0.23700
C489        C  0.50031622  0.49324200  0.20506328     0.26700
C490        C  0.52873379  0.48638427  0.22029835    -0.20400
C491        C  0.52458425  0.48498982  0.24653639    -0.10100
C492        C  0.49256937  0.49157354  0.25809737    -0.10600
C493        C  0.46397094  0.49834381  0.24283020    -0.03600
C494        C  0.46760179  0.49888313  0.21651575    -0.18700
H495        H  0.43620970  0.42945897  0.07935476     0.10400
H496        H  0.42475798  0.42438830  0.12513011     0.10500
H497        H  0.54034486  0.55028571  0.13427791     0.10200
H498        H  0.55140867  0.55580321  0.08855379     0.11300
H499        H  0.44075042  0.46560564  0.16742208     0.11400
H500        H  0.54044683  0.50977812  0.17058433     0.13300
H501        H  0.55430535  0.48219398  0.21185145     0.09800
H502        H  0.54722703  0.47990620  0.25779529     0.11900
H503        H  0.43901656  0.50354290  0.25123051     0.08500
H504        H  0.44576394  0.50508369  0.20521409     0.11200
C505        C  0.47834092  0.98230287  0.40805915    -0.03400
C506        C  0.48595961  0.95143876  0.42026763    -0.06000
C507        C  0.48269867  0.94690804  0.44653325    -0.21100
C508        C  0.47281751  0.97379087  0.46117657     0.24700
C509        C  0.46511512  0.00463224  0.44905825    -0.18600
C510        C  0.46757484  0.00864163  0.42274424    -0.08600
C511        C  0.47011211  0.96870036  0.48901029    -0.18900
C512        C  0.48596782  0.00318938  0.50460861    -0.23700
C513        C  0.48614686  0.99887655  0.53241282     0.26700
C514        C  0.52267844  0.02931968  0.54606630    -0.20400
C515        C  0.52369786  0.02669608  0.57234499    -0.10100
C516        C  0.48758895  0.99429231  0.58559552    -0.10600
C517        C  0.45064508  0.96410162  0.57194394    -0.03600
C518        C  0.45009377  0.96607594  0.54553055    -0.18700
H519        H  0.49408513  0.93048611  0.40950564     0.10400
H520        H  0.48857172  0.92280194  0.45548714     0.10500
H521        H  0.45659140  0.02520832  0.45989741     0.10200
H522        H  0.46130821  0.03256112  0.41391538     0.11300
H523        H  0.45796630  0.93627371  0.49681274     0.11400
H524        H  0.50246937  0.03588016  0.49669947     0.13300
H525        H  0.55069667  0.05498674  0.53632411     0.09800
H526        H  0.55250086  0.05057687  0.58234546     0.11900
H527        H  0.42234265  0.93882545  0.58167329     0.08500
H528        H  0.42120964  0.94263129  0.53541786     0.11200
C529        C  0.49093307  0.00074011  0.25244720    -0.03400
C530        C  0.46269102  0.01068301  0.23903768    -0.06000
C531        C  0.46174180  0.00957566  0.21262286    -0.21100
C532        C  0.48979897  0.99971915  0.19906803     0.24700
C533        C  0.51866176  0.99057654  0.21241889    -0.18600
C534        C  0.51897386  0.99076803  0.23883853    -0.08600
C535        C  0.48650221  0.99656237  0.17113686    -0.18900
C536        C  0.52139273  0.00888851  0.15607170    -0.23700
C537        C  0.51754646  0.00504795  0.12819037     0.26700
C538        C  0.54955432  0.03805111  0.11305495    -0.20400
C539        C  0.54663036  0.03498325  0.08670678    -0.10100
C540        C  0.51236104  0.99811806  0.07502468    -0.10600
C541        C  0.48090354  0.96458050  0.09021078    -0.03600
C542        C  0.48321011  0.96819018  0.11654006    -0.18700
H543        H  0.44049052  0.01818419  0.24897198     0.10400
H544        H  0.43900290  0.01640730  0.20272469     0.10500
H545        H  0.54002550  0.98195572  0.20248044     0.10200
H546        H  0.54100758  0.98283634  0.24862811     0.11300
H547        H  0.45464673  0.98548069  0.16267838     0.11400
H548        H  0.55389648  0.02427301  0.16427674     0.13300
H549        H  0.57650836  0.06654650  0.12165220     0.09800
H550        H  0.57147121  0.06119077  0.07546297     0.11900
H551        H  0.45414711  0.93581325  0.08171279     0.08500
H552        H  0.45858457  0.94183628  0.12779243     0.11200
C553        C  0.98503580  0.49088913  0.58931551    -0.03400
C554        C  0.94453624  0.47456539  0.57707037    -0.06000
C555        C  0.94214536  0.47493759  0.55075848    -0.21100
C556        C  0.98001726  0.49113571  0.53598645     0.24700
C557        C  0.02067522  0.50775097  0.54817667    -0.18600
C558        C  0.02310454  0.50756633  0.57456728    -0.08600
C559        C  0.97574991  0.49148349  0.50806347    -0.18900
C560        C  0.00496516  0.49124529  0.49184023    -0.23700
C561        C  0.99992062  0.49057310  0.46392929     0.26700
C562        C  0.02059885  0.47347847  0.44901611    -0.20400
C563        C  0.01718568  0.47276924  0.42269923    -0.10100
C564        C  0.99342092  0.48971537  0.41064331    -0.10600
C565        C  0.97305272  0.50725061  0.42554872    -0.03600
C566        C  0.97626728  0.50773168  0.45188795    -0.18700
H567        H  0.91455670  0.46163842  0.58781994     0.10400
H568        H  0.91046834  0.46227610  0.54188762     0.10500
H569        H  0.05073573  0.52171440  0.53748685     0.10200
H570        H  0.05483321  0.52071405  0.58341462     0.11300
H571        H  0.94609505  0.48940821  0.50071963     0.11400
H572        H  0.03249430  0.48905497  0.49915352     0.13300
H573        H  0.03932479  0.46040717  0.45777780     0.09800
H574        H  0.03352825  0.45928228  0.41179404     0.11900
H575        H  0.95481052  0.52089791  0.41685610     0.08500
H576        H  0.96097678  0.52241734  0.46264833     0.11200
C577        C  0.86902128  0.37734755  0.33316977    -0.03400
C578        C  0.83006614  0.37889799  0.33310241    -0.06000
C579        C  0.78957798  0.34056104  0.33323079    -0.21100
C580        C  0.78685840  0.29967146  0.33367799     0.24700
C581        C  0.82584414  0.29797809  0.33359088    -0.18600
C582        C  0.86646566  0.33644437  0.33336508    -0.08600
C583        C  0.74273477  0.26001770  0.33324666    -0.18900
C584        C  0.73432458  0.22004206  0.34046865    -0.23700
C585        C  0.68998281  0.18070829  0.33942229     0.26700
C586        C  0.68636598  0.13945976  0.33800600    -0.20400
C587        C  0.64541236  0.10170301  0.33635386    -0.10100
C588        C  0.60702528  0.10432980  0.33628647    -0.10600
C589        C  0.61054972  0.14551356  0.33844293    -0.03600
C590        C  0.65149110  0.18325774  0.34009533    -0.18700
H591        H  0.83077844  0.40981396  0.33284593     0.10400
H592        H  0.76016910  0.34289357  0.33307753     0.10500
H593        H  0.82535305  0.26723424  0.33317056     0.10200
H594        H  0.89586648  0.33412534  0.33325155     0.11300
H595        H  0.71612410  0.26442930  0.32671894     0.11400
H596        H  0.76082389  0.21531480  0.34681567     0.13300
H597        H  0.71539795  0.13646797  0.33777664     0.09800
H598        H  0.64387527  0.07047319  0.33494883     0.11900
H599        H  0.58161511  0.14864717  0.33886350     0.08500
H600        H  0.65261213  0.21414965  0.34220165     0.11200
C601        C  0.36475824  0.88214826  0.32614376    -0.03400
C602        C  0.32621975  0.88449731  0.32555359    -0.06000
C603        C  0.28532795  0.84643679  0.32543145    -0.21100
C604        C  0.28200183  0.80525086  0.32613059     0.24700
C605        C  0.32064958  0.80297564  0.32608401    -0.18600
C606        C  0.36144862  0.84095267  0.32619012    -0.08600
C607        C  0.23787082  0.76556355  0.32617632    -0.18900
C608        C  0.23026045  0.72631881  0.33437640    -0.23700
C609        C  0.18679346  0.68597577  0.33371050     0.26700
C610        C  0.18523614  0.64560076  0.33383073    -0.20400
C611        C  0.14528262  0.60665016  0.33335142    -0.10100
C612        C  0.10580603  0.60715514  0.33302825    -0.10600
C613        C  0.10725683  0.64756612  0.33323609    -0.03600
C614        C  0.14729078  0.68658889  0.33359978    -0.18700
H615        H  0.32761597  0.91573546  0.32533421     0.10400
H616        H  0.25615343  0.84918796  0.32510367     0.10500
H617        H  0.31983142  0.77208448  0.32557191     0.10200
H618        H  0.39047400  0.83796417  0.32638264     0.11300
H619        H  0.21095915  0.76918190  0.31927087     0.11400
H620        H  0.25714333  0.72284903  0.34146019     0.13300
H621        H  0.21514322  0.64417459  0.33410809     0.09800
H622        H  0.14536661  0.57612367  0.33333435     0.11900
H623        H  0.07741355  0.64908278  0.33322743     0.08500
H624        H  0.14697652  0.71693343  0.33427792     0.11200
C625        C  0.98553091  0.49679523  0.25498694    -0.03400
C626        C  0.95410920  0.50284825  0.24220475    -0.06000
C627        C  0.95395874  0.50447490  0.21579560    -0.21100
C628        C  0.98594930  0.50140422  0.20173974     0.24700
C629        C  0.01747418  0.49551833  0.21451995    -0.18600
C630        C  0.01704013  0.49290499  0.24085828    -0.08600
C631        C  0.98483448  0.50254665  0.17376991    -0.18900
C632        C  0.02142265  0.52162241  0.15970510    -0.23700
C633        C  0.02067510  0.52205808  0.13173229     0.26700
C634        C  0.05265563  0.55862859  0.11871371    -0.20400
C635        C  0.05327409  0.55951178  0.09230912    -0.10100
C636        C  0.02264687  0.52325184  0.07843499    -0.10600
C637        C  0.99114622  0.48626936  0.09149764    -0.03600
C638        C  0.98991727  0.48579452  0.11789200    -0.18700
H639        H  0.92928567  0.50568255  0.25261030     0.10400
H640        H  0.92910685  0.50861123  0.20631751     0.10500
H641        H  0.04193252  0.49203265  0.20415046     0.10200
H642        H  0.04165119  0.48822236  0.25019701     0.11300
H643        H  0.95319493  0.48899797  0.16460114     0.11400
H644        H  0.05299442  0.53918698  0.16898721     0.13300
H645        H  0.07694045  0.58675199  0.12902151     0.09800
H646        H  0.07805070  0.58834244  0.08274585     0.11900
H647        H  0.96712445  0.45784634  0.08129563     0.08500
H648        H  0.96550705  0.45675391  0.12745392     0.11200
C649        C  0.98892849  0.00366192  0.41112505    -0.03400
C650        C  0.96895406  0.02405495  0.42371811    -0.06000
C651        C  0.96861033  0.02551159  0.45007122    -0.21100
C652        C  0.98846993  0.00696930  0.46449718     0.24700
C653        C  0.00839952  0.98641276  0.45192673    -0.18600
C654        C  0.00872132  0.98492603  0.42553142    -0.08600
C655        C  0.98583549  0.00794877  0.49249711    -0.18900
C656        C  0.01381929  0.00416425  0.50814124    -0.23700
C657        C  0.01057939  0.00419958  0.53613866     0.26700
C658        C  0.04802116  0.01535319  0.55055831    -0.20400
C659        C  0.04619511  0.01451294  0.57692183    -0.10100
C660        C  0.00664265  0.00191331  0.58951111    -0.10600
C661        C  0.96902497  0.99044081  0.57510941    -0.03600
C662        C  0.97091309  0.99154040  0.54871708    -0.18700
H663        H  0.95335638  0.03878227  0.41321811     0.10400
H664        H  0.95274209  0.04123605  0.45923847     0.10500
H665        H  0.02287252  0.97051673  0.46231586     0.10200
H666        H  0.02407547  0.96866364  0.41642112     0.11300
H667        H  0.96080403  0.01367196  0.50036847     0.11400
H668        H  0.04136186  0.00263336  0.50028097     0.13300
H669        H  0.07887704  0.02480643  0.54137802     0.09800
H670        H  0.07573013  0.02328953  0.58743586     0.11900
H671        H  0.93800120  0.98035328  0.58423146     0.08500
H672        H  0.94101835  0.98141623  0.53833405     0.11200
C673        C  0.87550766  0.87827687  0.33503438    -0.03400
C674        C  0.87777505  0.83992283  0.33287453    -0.06000
C675        C  0.83976507  0.79914029  0.33330993    -0.21100
C676        C  0.79862463  0.79568936  0.33574737     0.24700
C677        C  0.79634825  0.83407621  0.33825708    -0.18600
C678        C  0.83438072  0.87488907  0.33778673    -0.08600
C679        C  0.75924085  0.75150553  0.33638702    -0.18900
C680        C  0.71877237  0.74347577  0.33052499    -0.23700
C681        C  0.67923262  0.69936511  0.33131329     0.26700
C682        C  0.63813425  0.69624551  0.33286390    -0.20400
C683        C  0.59999394  0.65561113  0.33372066    -0.10100
C684        C  0.60205831  0.61703070  0.33293546    -0.10600
C685        C  0.64310988  0.62003311  0.33095410    -0.03600
C686        C  0.68128910  0.66070870  0.33002631    -0.18700
H687        H  0.90894126  0.84137146  0.33076732     0.10400
H688        H  0.84249864  0.77012817  0.33155623     0.10500
H689        H  0.76550354  0.83292033  0.34107766     0.10200
H690        H  0.83156237  0.90380417  0.33979728     0.11300
H691        H  0.76432682  0.72478651  0.34162488     0.11400
H692        H  0.71386268  0.77029502  0.32522037     0.13300
H693        H  0.63552126  0.72541900  0.33364540     0.09800
H694        H  0.56888081  0.65446618  0.33513430     0.11900
H695        H  0.64575977  0.59090929  0.32993643     0.08500
H696        H  0.71205151  0.66145446  0.32789235     0.11200
C697        C  0.37523946  0.37838647  0.33734122    -0.03400
C698        C  0.37594831  0.33978253  0.34222767    -0.06000
C699        C  0.33711875  0.29967224  0.34275272    -0.21100
C700        C  0.29674854  0.29709029  0.33817411     0.24700
C701        C  0.29605259  0.33584685  0.33337046    -0.18600
C702        C  0.33486843  0.37595141  0.33292346    -0.08600
C703        C  0.25644021  0.25353598  0.33926693    -0.18900
C704        C  0.21753983  0.24472537  0.32964417    -0.23700
C705        C  0.17771586  0.20088249  0.33069602     0.26700
C706        C  0.13666024  0.19778118  0.32866485    -0.20400
C707        C  0.09837236  0.15719311  0.32919194    -0.10100
C708        C  0.10034056  0.11869324  0.33150979    -0.10600
C709        C  0.14144242  0.12172100  0.33325326    -0.03600
C710        C  0.17970774  0.16229397  0.33278216    -0.18700
H711        H  0.40648652  0.34055440  0.34580672     0.10400
H712        H  0.33866443  0.27045278  0.34666980     0.10500
H713        H  0.26580961  0.33582203  0.33041716     0.10200
H714        H  0.33318671  0.40513534  0.32917569     0.11300
H715        H  0.25940368  0.22766868  0.34832127     0.11400
H716        H  0.21403267  0.27039577  0.32080357     0.13300
H717        H  0.13418524  0.22692899  0.32680125     0.09800
H718        H  0.06724291  0.15599991  0.32770092     0.11900
H719        H  0.14412084  0.09266799  0.33485698     0.08500
H720        H  0.21061660  0.16300809  0.33350742     0.11200
C721        C  0.01496364  0.01308490  0.07868328    -0.03400
C722        C  0.04603138  0.04938563  0.09236385    -0.06000
C723        C  0.04705281  0.04809146  0.11873303    -0.21100
C724        C  0.01636920  0.01099772  0.13192916     0.24700
C725        C  0.98523296  0.97467534  0.11828807    -0.18600
C726        C  0.98475146  0.97562576  0.09191416    -0.08600
C727        C  0.01825444  0.01051499  0.15985781    -0.18900
C728        C  0.98212305  0.99085481  0.17424088    -0.23700
C729        C  0.98395041  0.99199630  0.20217019     0.26700
C730        C  0.95206056  0.99597589  0.21569695    -0.20400
C731        C  0.95320215  0.99756760  0.24205921    -0.10100
C732        C  0.98563029  0.99399425  0.25543017    -0.10600
C733        C  0.01694238  0.98888007  0.24187338    -0.03600
C734        C  0.01633022  0.98822868  0.21546514    -0.18700
H735        H  0.06997079  0.07853433  0.08266861     0.10400
H736        H  0.07154770  0.07630939  0.12888279     0.10500
H737        H  0.96179238  0.94525823  0.12796265     0.10200
H738        H  0.96056349  0.94708491  0.08187197     0.11300
H739        H  0.04998582  0.02924554  0.16883357     0.11400
H740        H  0.95018346  0.97618745  0.16534096     0.13300
H741        H  0.92661728  0.99856884  0.20581106     0.09800
H742        H  0.92843195  0.00118243  0.25199056     0.11900
H743        H  0.04220861  0.98588627  0.25167409     0.08500
H744        H  0.04076228  0.98416141  0.20547006     0.11200
loop_ 
_geom_bond_atom_site_label_1 
_geom_bond_atom_site_label_2 
_geom_bond_distance 
_geom_bond_site_symmetry_2 
_ccdc_geom_bond_type 
O1           Cu9   2.013   1_455  S
O1           C11   1.279       .  A
O2           Cu9   2.010   1_565  S
O2           C12   1.278       .  A
O3           Cu9   2.005       .  S
O3           C13   1.278       .  A
O4           Cu9   2.006       .  S
O4           C14   1.278   1_545  A
O5          Cu10   2.016       .  S
O5           C14   1.279   1_455  A
O6          Cu10   2.017       .  S
O6           C13   1.279   1_465  A
O7          Cu10   2.009   1_655  S
O7           C12   1.278       .  A
O8          Cu10   2.006   1_545  S
O8           C11   1.278       .  A
Cu9         Cu10   2.370   1_645  S
C11         C708   1.482       .  S
C12         C673   1.481       .  S
C13         C649   1.483       .  S
C14         C732   1.480       .  S
O15         Cu23   2.012       .  S
O15          C25   1.279       .  A
O16         Cu23   2.020   1_655  S
O16          C26   1.280       .  A
O17         Cu23   2.011       .  S
O17          C27   1.278   1_455  A
O18         Cu23   2.010       .  S
O18          C28   1.278   1_455  A
O19         Cu24   2.016       .  S
O19          C28   1.279       .  A
O20         Cu24   2.016       .  S
O20          C27   1.279       .  A
O21         Cu24   2.004       .  S
O21          C26   1.278       .  A
O22         Cu24   2.009   1_455  S
O22          C25   1.278       .  A
Cu23        Cu24   2.370   1_455  S
C25         C612   1.483       .  S
C26         C577   1.484       .  S
C27         C625   1.480       .  S
C28         C564   1.484       .  S
O29         Cu37   2.013       .  S
O29          C39   1.279       .  A
O30         Cu37   2.011   1_565  S
O30          C40   1.278       .  A
O31         Cu37   2.017       .  S
O31          C41   1.279   1_545  A
O32         Cu37   2.019       .  S
O32          C42   1.279   1_545  A
O33         Cu38   2.011       .  S
O33          C42   1.278       .  A
O34         Cu38   2.009       .  S
O34          C41   1.278       .  A
O35         Cu38   2.010       .  S
O35          C40   1.279       .  A
O36         Cu38   2.011   1_545  S
O36          C39   1.279       .  A
Cu37        Cu38   2.370   1_545  S
C39         C588   1.484       .  S
C40         C601   1.483       .  S
C41         C505   1.483       .  S
C42         C529   1.483   1_565  S
O43         Cu51   2.002       .  S
O43          C53   1.277       .  A
O44         Cu51   2.005       .  S
O44          C54   1.278       .  A
O45         Cu51   2.016       .  S
O45          C55   1.279       .  A
O46         Cu51   2.012       .  S
O46          C56   1.279       .  A
O47         Cu52   2.007       .  S
O47          C56   1.278       .  A
O48         Cu52   2.001       .  S
O48          C55   1.277       .  A
O49         Cu52   2.018       .  S
O49          C54   1.279       .  A
O50         Cu52   2.015       .  S
O50          C53   1.279       .  A
Cu51        Cu52   2.371       .  S
C53         C492   1.479       .  S
C54         C468   1.483       .  S
C55         C697   1.481       .  S
C56         C684   1.481       .  S
O57         Cu65   2.015       .  S
O57          C67   1.279       .  A
O58         Cu65   2.014   1_556  S
O58          C68   1.279       .  A
O59         Cu65   2.009   1_655  S
O59          C69   1.278       .  A
O60         Cu65   2.002       .  S
O60          C70   1.278       .  A
O61         Cu66   2.016   1_455  S
O61          C70   1.279   1_565  A
O62         Cu66   2.011       .  S
O62          C69   1.279   1_565  A
O63         Cu66   2.005   1_556  S
O63          C68   1.278   1_665  A
O64         Cu66   2.006       .  S
O64          C67   1.278   1_665  A
Cu65        Cu66   2.370   1_445  S
C67         C721   1.480       .  S
C68         C444   1.482       .  S
C69         C396   1.482       .  S
C70         C409   1.481       .  S
O71         Cu79   2.000   1_556  S
O71          C81   1.277       .  A
O72         Cu79   2.001   1_655  S
O72          C82   1.277       .  A
O73         Cu79   2.016       .  S
O73          C83   1.279       .  A
O74         Cu79   2.020   1_556  S
O74          C84   1.280       .  A
O75         Cu80   2.004   1_556  S
O75          C84   1.278       .  A
O76         Cu80   2.008       .  S
O76          C83   1.278       .  A
O77         Cu80   2.012   1_655  S
O77          C82   1.279       .  A
O78         Cu80   2.018   1_556  S
O78          C81   1.280       .  A
Cu79        Cu80   2.371       .  S
C81         C348   1.480       .  S
C82         C313   1.480       .  S
C83         C636   1.480       .  S
C84         C361   1.483       .  S
O85         Cu93   2.012   1_554  S
O85          C95   1.278   1_545  A
O86         Cu93   2.010       .  S
O86          C96   1.278   1_545  A
O87         Cu93   2.015       .  S
O87          C97   1.279   1_546  A
O88         Cu93   2.009       .  S
O88          C98   1.278   1_545  A
O89         Cu94   2.010       .  S
O89          C98   1.279       .  A
O90         Cu94   2.003   1_554  S
O90          C97   1.278       .  A
O91         Cu94   2.016       .  S
O91          C96   1.279       .  A
O92         Cu94   2.016   1_554  S
O92          C95   1.279       .  A
Cu93        Cu94   2.370   1_545  S
C95         C540   1.480       .  S
C96         C289   1.484       .  S
C97         C420   1.481       .  S
C98         C385   1.482       .  S
O99        Cu107   2.008       .  S
O99         C109   1.278       .  A
O100       Cu107   2.013       .  S
O100        C110   1.279   1_554  A
O101       Cu107   2.013       .  S
O101        C111   1.279       .  A
O102       Cu107   2.014   1_556  S
O102        C112   1.279       .  A
O103       Cu108   2.003   1_556  S
O103        C112   1.278       .  A
O104       Cu108   2.004       .  S
O104        C111   1.277       .  A
O105       Cu108   2.002   1_556  S
O105        C110   1.278       .  A
O106       Cu108   2.008       .  S
O106        C109   1.278       .  A
Cu107      Cu108   2.371       .  S
C109        C324   1.480       .  S
C110        C337   1.480       .  S
C111        C481   1.477       .  S
C112        C265   1.481       .  S
O113       Cu121   2.021       .  S
O113        C123   1.280       .  A
O114       Cu121   2.018   1_565  S
O114        C124   1.280   1_455  A
O115       Cu121   2.008       .  S
O115        C125   1.278       .  A
O116       Cu121   2.007       .  S
O116        C126   1.278   1_445  A
O117       Cu122   2.015       .  S
O117        C126   1.279       .  A
O118       Cu122   2.015       .  S
O118        C125   1.279   1_665  A
O119       Cu122   2.001       .  S
O119        C124   1.277       .  A
O120       Cu122   2.001   1_545  S
O120        C123   1.277   1_655  A
Cu121      Cu122   2.370   1_445  S
C123        C252   1.483       .  S
C124        C217   1.482       .  S
C125        C660   1.483       .  S
C126        C433   1.483       .  S
O127       Cu135   2.018       .  S
O127        C137   1.280       .  A
O128       Cu135   2.019       .  S
O128        C138   1.280       .  A
O129       Cu135   2.002       .  S
O129        C139   1.277       .  A
O130       Cu135   2.002       .  S
O130        C140   1.277       .  A
O131       Cu136   2.021       .  S
O131        C140   1.280   1_455  A
O132       Cu136   2.023       .  S
O132        C139   1.280   1_455  A
O133       Cu136   2.001       .  S
O133        C138   1.277   1_455  A
O134       Cu136   2.004       .  S
O134        C137   1.278   1_455  A
Cu135      Cu136   2.370   1_655  S
C137        C241   1.483       .  S
C138        C228   1.482       .  S
C139        C553   1.484       .  S
C140        C372   1.482       .  S
O141       Cu149   2.018       .  S
O141        C151   1.279       .  A
O142       Cu149   2.021       .  S
O142        C152   1.279       .  A
O143       Cu149   2.002       .  S
O143        C153   1.277       .  A
O144       Cu149   2.006   1_545  S
O144        C154   1.278       .  A
O145       Cu150   2.018       .  S
O145        C154   1.279       .  A
O146       Cu150   2.021   1_565  S
O146        C153   1.280       .  A
O147       Cu150   2.006       .  S
O147        C152   1.278   1_545  A
O148       Cu150   2.005       .  S
O148        C151   1.278   1_545  A
Cu149      Cu150   2.370   1_565  S
C151        C300   1.483       .  S
C152        C516   1.481       .  S
C153        C169   1.483       .  S
C154        C204   1.484       .  S
O155       Cu163   2.006       .  S
O155        C165   1.278       .  A
O156       Cu163   2.011       .  S
O156        C166   1.278       .  A
O157       Cu163   2.017       .  S
O157        C167   1.279       .  A
O158       Cu163   2.017       .  S
O158        C168   1.279       .  A
O159       Cu164   2.005       .  S
O159        C168   1.278       .  A
O160       Cu164   2.007       .  S
O160        C167   1.278       .  A
O161       Cu164   2.013       .  S
O161        C166   1.279       .  A
O162       Cu164   2.013       .  S
O162        C165   1.279       .  A
Cu163      Cu164   2.370       .  S
C165        C276   1.481       .  S
C166        C457   1.484       .  S
C167        C193   1.483       .  S
C168        C180   1.483       .  S
C169        C170   1.406       .  A
C169        C174   1.405       .  A
C170        C171   1.397       .  A
C170        H183   1.083       .  S
C171        C172   1.403       .  A
C171        H184   1.084       .  S
C172        C173   1.409       .  A
C172        C175   1.488       .  S
C173        C174   1.400       .  A
C173        H185   1.081       .  S
C174        H186   1.083       .  S
C175        C176   1.348       .  D
C175        H187   1.083       .  S
C176        C177   1.491       .  S
C176        H188   1.085       .  S
C177        C178   1.404       .  A
C177        C182   1.410       .  A
C178        C179   1.397       .  A
C178        H189   1.084       .  S
C179        C180   1.405       .  A
C179        H190   1.083       .  S
C180        C181   1.405       .  A
C181        C182   1.400       .  A
C181        H191   1.083       .  S
C182        H192   1.080       .  S
C193        C194   1.406       .  A
C193        C198   1.405       .  A
C194        C195   1.398       .  A
C194        H207   1.083       .  S
C195        C196   1.403       .  A
C195        H208   1.084       .  S
C196        C197   1.409       .  A
C196        C199   1.490       .  S
C197        C198   1.400       .  A
C197        H209   1.081       .  S
C198        H210   1.083       .  S
C199        C200   1.348       .  D
C199        H211   1.084       .  S
C200        C201   1.491       .  S
C200        H212   1.085       .  S
C201        C202   1.404       .  A
C201        C206   1.410       .  A
C202        C203   1.397       .  A
C202        H213   1.084       .  S
C203        C204   1.405       .  A
C203        H214   1.083       .  S
C204        C205   1.406       .  A
C205        C206   1.401       .  A
C205        H215   1.083       .  S
C206        H216   1.080       .  S
C217        C218   1.406       .  A
C217        C222   1.405   1_655  A
C218        C219   1.397       .  A
C218        H231   1.083       .  S
C219        C220   1.403       .  A
C219        H232   1.083       .  S
C220        C221   1.409   1_655  A
C220        C223   1.488       .  S
C221        C222   1.400       .  A
C221        H233   1.081       .  S
C222        H234   1.083       .  S
C223        C224   1.347   1_655  D
C223        H235   1.085       .  S
C224        C225   1.487       .  S
C224        H236   1.084       .  S
C225        C226   1.402       .  A
C225        C230   1.409   1_455  A
C226        C227   1.397       .  A
C226        H237   1.084       .  S
C227        C228   1.406   1_455  A
C227        H238   1.083       .  S
C228        C229   1.405       .  A
C229        C230   1.400       .  A
C229        H239   1.083       .  S
C230        H240   1.081       .  S
C241        C242   1.405       .  A
C241        C246   1.406   1_655  A
C242        C243   1.400       .  A
C242        H255   1.083       .  S
C243        C244   1.405       .  A
C243        H256   1.083       .  S
C244        C245   1.407   1_655  A
C244        C247   1.489       .  S
C245        C246   1.398       .  A
C245        H257   1.081       .  S
C246        H258   1.083       .  S
C247        C248   1.351   1_655  D
C247        H259   1.083       .  S
C248        C249   1.491       .  S
C248        H260   1.084       .  S
C249        C250   1.406       .  A
C249        C254   1.408   1_455  A
C250        C251   1.400       .  A
C250        H261   1.083       .  S
C251        C252   1.405       .  A
C251        H262   1.083       .  S
C252        C253   1.406   1_455  A
C253        C254   1.397       .  A
C253        H263   1.083       .  S
C254        H264   1.080       .  S
C265        C266   1.405       .  A
C265        C270   1.405       .  A
C266        C267   1.399       .  A
C266        H279   1.083       .  S
C267        C268   1.404       .  A
C267        H280   1.083       .  S
C268        C269   1.408       .  A
C268        C271   1.488       .  S
C269        C270   1.397       .  A
C269        H281   1.081       .  S
C270        H282   1.083       .  S
C271        C272   1.348       .  D
C271        H283   1.085       .  S
C272        C273   1.487       .  S
C272        H284   1.085       .  S
C273        C274   1.403       .  A
C273        C278   1.408       .  A
C274        C275   1.396       .  A
C274        H285   1.084       .  S
C275        C276   1.405       .  A
C275        H286   1.083       .  S
C276        C277   1.406       .  A
C277        C278   1.400       .  A
C277        H287   1.083       .  S
C278        H288   1.081       .  S
C289        C290   1.406       .  A
C289        C294   1.406   1_565  A
C290        C291   1.400       .  A
C290        H303   1.083       .  S
C291        C292   1.403       .  A
C291        H304   1.084       .  S
C292        C293   1.407   1_565  A
C292        C295   1.487       .  S
C293        C294   1.398       .  A
C293        H305   1.082       .  S
C294        H306   1.083       .  S
C295        C296   1.347       .  D
C295        H307   1.086       .  S
C296        C297   1.486       .  S
C296        H308   1.087   1_565  S
C297        C298   1.403   1_565  A
C297        C302   1.408       .  A
C298        C299   1.397       .  A
C298        H309   1.084       .  S
C299        C300   1.406   1_545  A
C299        H310   1.083       .  S
C300        C301   1.406       .  A
C301        C302   1.400       .  A
C301        H311   1.083       .  S
C302        H312   1.082       .  S
C313        C314   1.405       .  A
C313        C318   1.405       .  A
C314        C315   1.396       .  A
C314        H327   1.083       .  S
C315        C316   1.403       .  A
C315        H328   1.083       .  S
C316        C317   1.410       .  A
C316        C319   1.488       .  S
C317        C318   1.399       .  A
C317        H329   1.080       .  S
C318        H330   1.083       .  S
C319        C320   1.347       .  D
C319        H331   1.085       .  S
C320        C321   1.486       .  S
C320        H332   1.083   1_554  S
C321        C322   1.403       .  A
C321        C326   1.408       .  A
C322        C323   1.397       .  A
C322        H333   1.083       .  S
C323        C324   1.405       .  A
C323        H334   1.083       .  S
C324        C325   1.406       .  A
C325        C326   1.398       .  A
C325        H335   1.083       .  S
C326        H336   1.081       .  S
C337        C338   1.404       .  A
C337        C342   1.405   1_556  A
C338        C339   1.395       .  A
C338        H351   1.083       .  S
C339        C340   1.403       .  A
C339        H352   1.083       .  S
C340        C341   1.409   1_556  A
C340        C343   1.488       .  S
C341        C342   1.400       .  A
C341        H353   1.080       .  S
C342        H354   1.083       .  S
C343        C344   1.348       .  D
C343        H355   1.083       .  S
C344        C345   1.489       .  S
C344        H356   1.084       .  S
C345        C346   1.403   1_556  A
C345        C350   1.410       .  A
C346        C347   1.398       .  A
C346        H357   1.083       .  S
C347        C348   1.406   1_554  A
C347        H358   1.083       .  S
C348        C349   1.404       .  A
C349        C350   1.398       .  A
C349        H359   1.083       .  S
C350        H360   1.080       .  S
C361        C362   1.405       .  A
C361        C366   1.406   1_455  A
C362        C363   1.400       .  A
C362        H375   1.083       .  S
C363        C364   1.404       .  A
C363        H376   1.083       .  S
C364        C365   1.407   1_455  A
C364        C367   1.489       .  S
C365        C366   1.398       .  A
C365        H377   1.081       .  S
C366        H378   1.083       .  S
C367        C368   1.348   1_455  D
C367        H379   1.086       .  S
C368        C369   1.486       .  S
C368        H380   1.085       .  S
C369        C370   1.402       .  A
C369        C374   1.408   1_655  A
C370        C371   1.397       .  A
C370        H381   1.083       .  S
C371        C372   1.406       .  A
C371        H382   1.083       .  S
C372        C373   1.406   1_655  A
C373        C374   1.401       .  A
C373        H383   1.083       .  S
C374        H384   1.082       .  S
C385        C386   1.405       .  A
C385        C390   1.406   1_565  A
C386        C387   1.397       .  A
C386        H399   1.083       .  S
C387        C388   1.403       .  A
C387        H400   1.083       .  S
C388        C389   1.408   1_565  A
C388        C391   1.486       .  S
C389        C390   1.399       .  A
C389        H401   1.081       .  S
C390        H402   1.083       .  S
C391        C392   1.349   1_565  D
C391        H403   1.084       .  S
C392        C393   1.489       .  S
C392        H404   1.085   1_556  S
C393        C394   1.404       .  A
C393        C398   1.409   1_545  A
C394        C395   1.399       .  A
C394        H405   1.083       .  S
C395        C396   1.406   1_556  A
C395        H406   1.083       .  S
C396        C397   1.405   1_544  A
C397        C398   1.398       .  A
C397        H407   1.083   1_556  S
C398        H408   1.080       .  S
C409        C410   1.405       .  A
C409        C414   1.406   1_544  A
C410        C411   1.396   1_554  A
C410        H423   1.083       .  S
C411        C412   1.402       .  A
C411        H424   1.084       .  S
C412        C413   1.409   1_545  A
C412        C415   1.486       .  S
C413        C414   1.400       .  A
C413        H425   1.081       .  S
C414        H426   1.083       .  S
C415        C416   1.347   1_546  D
C415        H427   1.084       .  S
C416        C417   1.489       .  S
C416        H428   1.085       .  S
C417        C418   1.403       .  A
C417        C422   1.409   1_565  A
C418        C419   1.397       .  A
C418        H429   1.083       .  S
C419        C420   1.406       .  A
C419        H430   1.083       .  S
C420        C421   1.405   1_565  A
C421        C422   1.399       .  A
C421        H431   1.083   1_554  S
C422        H432   1.080       .  S
C433        C434   1.406       .  A
C433        C438   1.406   1_665  A
C434        C435   1.399       .  A
C434        H447   1.083       .  S
C435        C436   1.403       .  A
C435        H448   1.083       .  S
C436        C437   1.407   1_665  A
C436        C439   1.486       .  S
C437        C438   1.398       .  A
C437        H449   1.082       .  S
C438        H450   1.083       .  S
C439        C440   1.348   1_665  D
C439        H451   1.085       .  S
C440        C441   1.486       .  S
C440        H452   1.085       .  S
C441        C442   1.404       .  A
C441        C446   1.407   1_445  A
C442        C443   1.398       .  A
C442        H453   1.083       .  S
C443        C444   1.405       .  A
C443        H454   1.083       .  S
C444        C445   1.406   1_445  A
C445        C446   1.398       .  A
C445        H455   1.083       .  S
C446        H456   1.082       .  S
C457        C458   1.405       .  A
C457        C462   1.406       .  A
C458        C459   1.398       .  A
C458        H471   1.083       .  S
C459        C460   1.404       .  A
C459        H472   1.084       .  S
C460        C461   1.409       .  A
C460        C463   1.490       .  S
C461        C462   1.400       .  A
C461        H473   1.081       .  S
C462        H474   1.083       .  S
C463        C464   1.349       .  D
C463        H475   1.085       .  S
C464        C465   1.490       .  S
C464        H476   1.085       .  S
C465        C466   1.405       .  A
C465        C470   1.408       .  A
C466        C467   1.400       .  A
C466        H477   1.083       .  S
C467        C468   1.405       .  A
C467        H478   1.083       .  S
C468        C469   1.405       .  A
C469        C470   1.398       .  A
C469        H479   1.083       .  S
C470        H480   1.081       .  S
C481        C482   1.406       .  A
C481        C486   1.404       .  A
C482        C483   1.398       .  A
C482        H495   1.083       .  S
C483        C484   1.401       .  A
C483        H496   1.083       .  S
C484        C485   1.406       .  A
C484        C487   1.481       .  S
C485        C486   1.398       .  A
C485        H497   1.083       .  S
C486        H498   1.083       .  S
C487        C488   1.344       .  D
C487        H499   1.087       .  S
C488        C489   1.480       .  S
C488        H500   1.087       .  S
C489        C490   1.401       .  A
C489        C494   1.406       .  A
C490        C491   1.396       .  A
C490        H501   1.084       .  S
C491        C492   1.405       .  A
C491        H502   1.083       .  S
C492        C493   1.406       .  A
C493        C494   1.400       .  A
C493        H503   1.083       .  S
C494        H504   1.082       .  S
C505        C506   1.407       .  A
C505        C510   1.406   1_565  A
C506        C507   1.399       .  A
C506        H519   1.083       .  S
C507        C508   1.402       .  A
C507        H520   1.083       .  S
C508        C509   1.406   1_565  A
C508        C511   1.483       .  S
C509        C510   1.400       .  A
C509        H521   1.083       .  S
C510        H522   1.083       .  S
C511        C512   1.344   1_565  D
C511        H523   1.087       .  S
C512        C513   1.481   1_545  S
C512        H524   1.087       .  S
C513        C514   1.401   1_565  A
C513        C518   1.406       .  A
C514        C515   1.397       .  A
C514        H525   1.084       .  S
C515        C516   1.406   1_545  A
C515        H526   1.083       .  S
C516        C517   1.406       .  A
C517        C518   1.402       .  A
C517        H527   1.083       .  S
C518        H528   1.083       .  S
C529        C530   1.406       .  A
C529        C534   1.407   1_545  A
C530        C531   1.400       .  A
C530        H543   1.083       .  S
C531        C532   1.403   1_545  A
C531        H544   1.083       .  S
C532        C533   1.406       .  A
C532        C535   1.484       .  S
C533        C534   1.400       .  A
C533        H545   1.083       .  S
C534        H546   1.083       .  S
C535        C536   1.346   1_565  D
C535        H547   1.087       .  S
C536        C537   1.484       .  S
C536        H548   1.087       .  S
C537        C538   1.403       .  A
C537        C542   1.406   1_545  A
C538        C539   1.400       .  A
C538        H549   1.083       .  S
C539        C540   1.406   1_545  A
C539        H550   1.083       .  S
C540        C541   1.405       .  A
C541        C542   1.400       .  A
C541        H551   1.083       .  S
C542        H552   1.083       .  S
C553        C554   1.406       .  A
C553        C558   1.406   1_655  A
C554        C555   1.397       .  A
C554        H567   1.083       .  S
C555        C556   1.403       .  A
C555        H568   1.084       .  S
C556        C557   1.409   1_655  A
C556        C559   1.488       .  S
C557        C558   1.401       .  A
C557        H569   1.082       .  S
C558        H570   1.083       .  S
C559        C560   1.347   1_655  D
C559        H571   1.086       .  S
C560        C561   1.488   1_455  S
C560        H572   1.086       .  S
C561        C562   1.403   1_655  A
C561        C566   1.408       .  A
C562        C563   1.399       .  A
C562        H573   1.084       .  S
C563        C564   1.406   1_455  A
C563        H574   1.083       .  S
C564        C565   1.406       .  A
C565        C566   1.400       .  A
C565        H575   1.083       .  S
C566        H576   1.082       .  S
C577        C578   1.405       .  A
C577        C582   1.406       .  A
C578        C579   1.397       .  A
C578        H591   1.083       .  S
C579        C580   1.403       .  A
C579        H592   1.083       .  S
C580        C581   1.409       .  A
C580        C583   1.489       .  S
C581        C582   1.401       .  A
C581        H593   1.081       .  S
C582        H594   1.083       .  S
C583        C584   1.349       .  D
C583        H595   1.084       .  S
C584        C585   1.490       .  S
C584        H596   1.084       .  S
C585        C586   1.404       .  A
C585        C590   1.409       .  A
C586        C587   1.399       .  A
C586        H597   1.083       .  S
C587        C588   1.406       .  A
C587        H598   1.083       .  S
C588        C589   1.406       .  A
C589        C590   1.399       .  A
C589        H599   1.083       .  S
C590        H600   1.081       .  S
C601        C602   1.406       .  A
C601        C606   1.405       .  A
C602        C603   1.400       .  A
C602        H615   1.083       .  S
C603        C604   1.404       .  A
C603        H616   1.084       .  S
C604        C605   1.408       .  A
C604        C607   1.490       .  S
C605        C606   1.397       .  A
C605        H617   1.081       .  S
C606        H618   1.083       .  S
C607        C608   1.349       .  D
C607        H619   1.085       .  S
C608        C609   1.487       .  S
C608        H620   1.084       .  S
C609        C610   1.404       .  A
C609        C614   1.408       .  A
C610        C611   1.397       .  A
C610        H621   1.084       .  S
C611        C612   1.405       .  A
C611        H622   1.083       .  S
C612        C613   1.407       .  A
C613        C614   1.400       .  A
C613        H623   1.083       .  S
C614        H624   1.081       .  S
C625        C626   1.406       .  A
C625        C630   1.405   1_655  A
C626        C627   1.401       .  A
C626        H639   1.083       .  S
C627        C628   1.403       .  A
C627        H640   1.083       .  S
C628        C629   1.406   1_655  A
C628        C631   1.484       .  S
C629        C630   1.398       .  A
C629        H641   1.083       .  S
C630        H642   1.083       .  S
C631        C632   1.346   1_655  D
C631        H643   1.087       .  S
C632        C633   1.483       .  S
C632        H644   1.087       .  S
C633        C634   1.403       .  A
C633        C638   1.405   1_455  A
C634        C635   1.399       .  A
C634        H645   1.083       .  S
C635        C636   1.405       .  A
C635        H646   1.083       .  S
C636        C637   1.406   1_455  A
C637        C638   1.399       .  A
C637        H647   1.083       .  S
C638        H648   1.083       .  S
C649        C650   1.406       .  A
C649        C654   1.406   1_645  A
C650        C651   1.398       .  A
C650        H663   1.083       .  S
C651        C652   1.403       .  A
C651        H664   1.083       .  S
C652        C653   1.409   1_645  A
C652        C655   1.488       .  S
C653        C654   1.400       .  A
C653        H665   1.081       .  S
C654        H666   1.083       .  S
C655        C656   1.347   1_655  D
C655        H667   1.085       .  S
C656        C657   1.488       .  S
C656        H668   1.085       .  S
C657        C658   1.403       .  A
C657        C662   1.408   1_445  A
C658        C659   1.398       .  A
C658        H669   1.083       .  S
C659        C660   1.406       .  A
C659        H670   1.083       .  S
C660        C661   1.406   1_445  A
C661        C662   1.400       .  A
C661        H671   1.083       .  S
C662        H672   1.081       .  S
C673        C674   1.405       .  A
C673        C678   1.406       .  A
C674        C675   1.398       .  A
C674        H687   1.083       .  S
C675        C676   1.403       .  A
C675        H688   1.083       .  S
C676        C677   1.408       .  A
C676        C679   1.487       .  S
C677        C678   1.399       .  A
C677        H689   1.081       .  S
C678        H690   1.083       .  S
C679        C680   1.348       .  D
C679        H691   1.084       .  S
C680        C681   1.488       .  S
C680        H692   1.085       .  S
C681        C682   1.403       .  A
C681        C686   1.409       .  A
C682        C683   1.397       .  A
C682        H693   1.083       .  S
C683        C684   1.405       .  A
C683        H694   1.083       .  S
C684        C685   1.405       .  A
C685        C686   1.399       .  A
C685        H695   1.083       .  S
C686        H696   1.081       .  S
C697        C698   1.404       .  A
C697        C702   1.406       .  A
C698        C699   1.398       .  A
C698        H711   1.083       .  S
C699        C700   1.405       .  A
C699        H712   1.083       .  S
C700        C701   1.408       .  A
C700        C703   1.489       .  S
C701        C702   1.398       .  A
C701        H713   1.080       .  S
C702        H714   1.083       .  S
C703        C704   1.349       .  D
C703        H715   1.084       .  S
C704        C705   1.487       .  S
C704        H716   1.083       .  S
C705        C706   1.404       .  A
C705        C710   1.408       .  A
C706        C707   1.398       .  A
C706        H717   1.083       .  S
C707        C708   1.405       .  A
C707        H718   1.083       .  S
C708        C709   1.406       .  A
C709        C710   1.398       .  A
C709        H719   1.083       .  S
C710        H720   1.081       .  S
C721        C722   1.405       .  A
C721        C726   1.406   1_445  A
C722        C723   1.399       .  A
C722        H735   1.083       .  S
C723        C724   1.403       .  A
C723        H736   1.083       .  S
C724        C725   1.405   1_445  A
C724        C727   1.482       .  S
C725        C726   1.398       .  A
C725        H737   1.083       .  S
C726        H738   1.083       .  S
C727        C728   1.345   1_445  D
C727        H739   1.087       .  S
C728        C729   1.481       .  S
C728        H740   1.087       .  S
C729        C730   1.402       .  A
C729        C734   1.406   1_655  A
C730        C731   1.398       .  A
C730        H741   1.084       .  S
C731        C732   1.406       .  A
C731        H742   1.083   1_565  S
C732        C733   1.406   1_655  A
C733        C734   1.399       .  A
C733        H743   1.083       .  S
C734        H744   1.083       .  S
