geometry optimzed in LAMMPS
_audit_creation_date              2020-12-01 
_audit_creation_method            'lammps2cif' 
_symmetry_space_group_name_H-M    'P1' 
_symmetry_Int_Tables_number       1 
_symmetry_cell_setting            triclinic 
loop_ 
_symmetry_equiv_pos_as_xyz 
  x,y,z 
_cell_length_a                    56.98617732 
_cell_length_b                    57.02364979281775 
_cell_length_c                    21.67917241914184 
_cell_angle_alpha                 90.10276630147789 
_cell_angle_beta                  89.98651214308158 
_cell_angle_gamma                 120.10103028790982 
loop_ 
_atom_site_label 
_atom_site_type_symbol 
_atom_site_fract_x 
_atom_site_fract_y 
_atom_site_fract_z 
_atom_site_charge 
O1          O  0.21535486  0.47248410  0.04766719    -0.73100
O2          O  0.24622886  0.03040373  0.91974285    -0.74000
O3          O  0.21807117  0.47118385  0.91903623    -0.62700
O4          O  0.24761938  0.03158689  0.05022004    -0.71100
O5          O  0.28514615  0.02899575  0.05278502    -0.70600
O6          O  0.25802720  0.47335380  0.91959134    -0.61900
O7          O  0.28613952  0.03257264  0.92309778    -0.74400
O8          O  0.25286534  0.46984962  0.04872882    -0.73200
Cu9        Cu  0.23056103  0.50153044  0.98396212     1.04600
Cu10       Cu  0.27188529  0.00120303  0.98616577     1.04300
C11         C  0.22801987  0.46059362  0.06515132     0.93100
C12         C  0.27102090  0.04186530  0.90372069     0.92300
C13         C  0.23344647  0.46183639  0.90193998     0.84400
C14         C  0.27187008  0.04026759  0.07028473     0.90700
N15         N  0.19611103  0.29956449  0.81853675    -0.27400
N16         N  0.21867361  0.32262817  0.80687823    -0.35300
C17         C  0.23606473  0.31642062  0.77870104     0.00900
C18         C  0.22363791  0.28826896  0.77202166     0.07000
C19         C  0.19832104  0.27845676  0.79788380    -0.06100
H20         H  0.25559582  0.33131673  0.76032963     0.07600
H21         H  0.18194987  0.25761517  0.79791918     0.08800
Cu22       Cu  0.22210566  0.36135412  0.82288142     0.44200
Cu23       Cu  0.16110181  0.29741778  0.84982647     0.42000
Cu24       Cu  0.15686132  0.35791886  0.83375912     0.43900
N25         N  0.21706398  0.39568728  0.83888011    -0.34800
N26         N  0.19296424  0.39383997  0.83980360    -0.29100
C27         C  0.19549302  0.41775893  0.85642297    -0.05200
C28         C  0.22251792  0.43603862  0.86698947     0.07100
C29         C  0.23565250  0.42131615  0.85537075     0.00900
H30         H  0.17856110  0.42077712  0.86615679     0.08500
H31         H  0.25687233  0.42816752  0.86336499     0.07600
N32         N  0.12371754  0.32004185  0.84681974    -0.36200
N33         N  0.12543965  0.29801083  0.85463041    -0.28400
C34         C  0.10042577  0.27654830  0.86052047    -0.03700
C35         C  0.08202972  0.28556669  0.85657010     0.04900
C36         C  0.09753257  0.31330170  0.84811789     0.03000
H37         H  0.09608412  0.25591376  0.86612495     0.08100
H38         H  0.09040147  0.32747573  0.84143263     0.07000
N39         N  0.30664996  0.20202120  0.81050307    -0.27400
N40         N  0.28422499  0.17874821  0.79907347    -0.35300
C41         C  0.26617832  0.18461474  0.77320717     0.00900
C42         C  0.27803652  0.21273666  0.76788891     0.07000
C43         C  0.30369778  0.22290667  0.79192774    -0.06100
H44         H  0.24652424  0.16954679  0.75561857     0.07600
H45         H  0.31973389  0.24389661  0.79240723     0.08800
Cu46       Cu  0.28132715  0.14020723  0.81330751     0.44200
Cu47       Cu  0.34231154  0.20536143  0.84058764     0.42000
Cu48       Cu  0.34688052  0.14523830  0.82729949     0.43900
N49         N  0.28694066  0.10648025  0.83225880    -0.34800
N50         N  0.31123571  0.10884070  0.83513459    -0.29100
C51         C  0.30909037  0.08553529  0.85560191    -0.05200
C52         C  0.28209885  0.06716897  0.86666566     0.07100
C53         C  0.26861749  0.08115424  0.85098076     0.00900
H54         H  0.32620919  0.08312491  0.86745528     0.08500
H55         H  0.24730621  0.07414880  0.85794853     0.07600
N56         N  0.37983188  0.18321147  0.84203256    -0.36200
N57         N  0.37808049  0.20524517  0.84930503    -0.28400
C58         C  0.40294937  0.22651408  0.85925103    -0.03700
C59         C  0.42134141  0.21736387  0.85838880     0.04900
C60         C  0.40582740  0.18972461  0.84746584     0.03000
H61         H  0.40720305  0.24711965  0.86502452     0.08100
H62         H  0.41265984  0.17519549  0.84372615     0.07000
O63         O  0.02863002  0.24464356  0.38791364    -0.73100
O64         O  0.47078517  0.21520857  0.25947607    -0.74000
O65         O  0.03026498  0.24688899  0.25915324    -0.62700
O66         O  0.46929864  0.21701881  0.38870200    -0.71100
O67         O  0.47164062  0.25701989  0.38893308    -0.70600
O68         O  0.02804443  0.28458456  0.25628895    -0.61900
O69         O  0.46850001  0.25289802  0.26040420    -0.74400
O70         O  0.03112265  0.28470943  0.38609628    -0.73200
Cu71       Cu  0.49973116  0.22959216  0.32374132     1.04600
Cu72       Cu  0.49985408  0.27116177  0.32279127     1.04300
C73         C  0.04038182  0.26940458  0.40419281     0.93100
C74         C  0.45891192  0.22809728  0.24349497     0.92300
C75         C  0.03961756  0.27137671  0.24024497     0.84400
C76         C  0.46005781  0.23241655  0.40635841     0.90700
N77         N  0.29580562  0.10270414  0.15863574    -0.27400
N78         N  0.31918228  0.10349921  0.14964175    -0.35300
C79         C  0.31378438  0.08029439  0.12075592     0.00900
C80         C  0.28587625  0.06452750  0.11059636     0.07000
C81         C  0.27528881  0.07952316  0.13540713    -0.06100
H82         H  0.32918666  0.07605656  0.10407016     0.07600
H83         H  0.25440835  0.07483444  0.13305950     0.08800
Cu84       Cu  0.35764884  0.13854544  0.16852663     0.44200
Cu85       Cu  0.29246578  0.13478856  0.19132915     0.42000
Cu86       Cu  0.35343419  0.19943170  0.18646068     0.43900
N87         N  0.39190962  0.17787331  0.18469552    -0.34800
N88         N  0.38975926  0.19989169  0.18815688    -0.29100
C89         C  0.41383373  0.22142460  0.20366046    -0.05200
C90         C  0.43252076  0.21300098  0.21079899     0.07100
C91         C  0.41786379  0.18517228  0.19841009     0.00900
H92         H  0.41679348  0.24122711  0.21490735     0.08500
H93         H  0.42507057  0.17098276  0.20382819     0.07600
N94         N  0.31572510  0.19470542  0.20288482    -0.36200
N95         N  0.29338948  0.17086003  0.20649139    -0.28400
C96         C  0.27224839  0.17450988  0.21707642    -0.03700
C97         C  0.28173304  0.20212289  0.22046429     0.04900
C98         C  0.30949437  0.21426186  0.21135025     0.03000
H99         H  0.25149514  0.15812757  0.22050629     0.08100
H100        H  0.32413258  0.23568512  0.20912869     0.07000
N101        N  0.20195091  0.39557321  0.14349185    -0.27400
N102        N  0.17866254  0.39485067  0.13337866    -0.35300
C103        C  0.18462077  0.41878438  0.10724906     0.00900
C104        C  0.21278799  0.43495579  0.10067786     0.07000
C105        C  0.22285206  0.41933576  0.12414786    -0.06100
H106        H  0.16955763  0.42356735  0.09093563     0.07600
H107        H  0.24382479  0.42425201  0.12422851     0.08800
Cu108      Cu  0.13980362  0.35947169  0.15145871     0.44200
Cu109      Cu  0.20552918  0.36358758  0.17536990     0.42000
Cu110      Cu  0.14480173  0.29974811  0.18379057     0.43900
N111        N  0.10563757  0.32033450  0.17347670    -0.34800
N112        N  0.10825969  0.29878968  0.18219423    -0.29100
C113        C  0.08454039  0.27763781  0.20085866    -0.05200
C114        C  0.06550486  0.28574326  0.20505903     0.07100
C115        C  0.07963464  0.31303984  0.18722753     0.00900
H116        H  0.08215414  0.25855764  0.21658195     0.08500
H117        H  0.07208621  0.32705751  0.18913416     0.07600
N118        N  0.18266630  0.30457391  0.19784357    -0.36200
N119        N  0.20523597  0.32823728  0.19552989    -0.28400
C120        C  0.22646454  0.32462595  0.20555781    -0.03700
C121        C  0.21671119  0.29720946  0.21493595     0.04900
C122        C  0.18876003  0.28519299  0.20981814     0.03000
H123        H  0.24739201  0.34076466  0.20437990     0.08100
H124        H  0.17375567  0.26394836  0.21378818     0.07000
O125        O  0.24286012  0.21518504  0.71590555    -0.73100
O126        O  0.21514529  0.24462608  0.58623294    -0.74000
O127        O  0.24519035  0.21520554  0.58723243    -0.62700
O128        O  0.21706931  0.24849640  0.71612677    -0.71100
O129        O  0.25774361  0.28545523  0.71563388    -0.70600
O130        O  0.28351169  0.25471042  0.58414522    -0.61900
O131        O  0.25358922  0.28407899  0.58709052    -0.74400
O132        O  0.28350904  0.25219087  0.71353976    -0.73200
Cu133      Cu  0.22866041  0.22956878  0.65132961     1.04600
Cu134      Cu  0.27095386  0.27041379  0.64994238     1.04300
C135        C  0.26767053  0.22774887  0.73194328     0.93100
C136        C  0.22874986  0.26933925  0.56987601     0.92300
C137        C  0.26984194  0.22985892  0.56865319     0.84100
C138        C  0.23323202  0.27303375  0.73385241     0.90700
N139        N  0.29651203  0.18785689  0.51096745    -0.27400
N140        N  0.31861664  0.21197057  0.50599867    -0.35300
C141        C  0.31167738  0.23083215  0.52006281     0.00900
C142        C  0.28403670  0.21792747  0.53450804     0.07000
C143        C  0.27530072  0.19066920  0.52800838    -0.06100
H144        H  0.32609672  0.25225771  0.52464537     0.07600
H145        H  0.25561478  0.17397208  0.54082497     0.08800
Cu146      Cu  0.35799615  0.21702325  0.48894552     0.44200
Cu147      Cu  0.29694948  0.15196779  0.50925121     0.42000
Cu148      Cu  0.36214279  0.15604456  0.51117133     0.43900
N149        N  0.39396781  0.21461759  0.47384887    -0.34800
N150        N  0.39480776  0.19210193  0.48306365    -0.29100
C151        C  0.41891022  0.19553838  0.46461751    -0.05200
C152        C  0.43456937  0.22158687  0.44269514     0.07100
C153        C  0.41808882  0.23315155  0.44934540     0.00900
H154        H  0.42393624  0.17959299  0.46348820     0.08500
H155        H  0.42267834  0.25298619  0.43342293     0.07600
N156        N  0.32622237  0.12102485  0.52888642    -0.36200
N157        N  0.30236154  0.11949408  0.52661833    -0.28400
C158        C  0.28300529  0.09418017  0.54044659    -0.03700
C159        C  0.29523943  0.07885968  0.55198214     0.04900
C160        C  0.32274114  0.09665263  0.54397720     0.03000
H161        H  0.26167350  0.08776471  0.54244947     0.08100
H162        H  0.33911756  0.09236546  0.54823693     0.07000
N163        N  0.20158227  0.31153208  0.52003329    -0.27400
N164        N  0.17980861  0.28750047  0.51076904    -0.35300
C165        C  0.18697435  0.26850484  0.52096427     0.00900
C166        C  0.21447205  0.28134553  0.53687356     0.07000
C167        C  0.22283449  0.30859521  0.53533189    -0.06100
H168        H  0.17276578  0.24693001  0.52207925     0.07600
H169        H  0.24212291  0.32499297  0.55137283     0.08800
Cu170      Cu  0.14070498  0.28274593  0.49272672     0.44200
Cu171      Cu  0.20078223  0.34698055  0.52922147     0.42000
Cu172      Cu  0.13606373  0.34284764  0.52467529     0.43900
N173        N  0.10555685  0.28612854  0.47491023    -0.34800
N174        N  0.10460090  0.30844165  0.48645456    -0.29100
C175        C  0.08103913  0.30567287  0.46575035    -0.05200
C176        C  0.06585157  0.28018393  0.44036895     0.07100
C177        C  0.08203628  0.26833497  0.44695799     0.00900
H178        H  0.07586778  0.32151514  0.46696109     0.08500
H179        H  0.07756817  0.24871779  0.42954657     0.07600
N180        N  0.17104415  0.37687153  0.55233287    -0.36200
N181        N  0.19501598  0.37865616  0.55278366    -0.28400
C182        C  0.21402842  0.40414942  0.56690894    -0.03700
C183        C  0.20137732  0.41930566  0.57525201     0.04900
C184        C  0.17403190  0.40115260  0.56592595     0.03000
H185        H  0.23553551  0.41126571  0.56728466     0.08100
H186        H  0.15752186  0.40533096  0.56561734     0.07000
C187        C  0.21456002  0.44910879  0.58099056    -0.05400
C188        C  0.19932913  0.46207505  0.57251525    -0.05300
C189        C  0.21209421  0.49019388  0.56917505    -0.23500
C190        C  0.24023312  0.00587211  0.57385264     0.18800
C191        C  0.25576504  0.49326735  0.58579641     0.16000
C192        C  0.24276667  0.46496961  0.58989115    -0.18500
C193        C  0.28391503  0.00915200  0.59140806    -0.20300
C194        C  0.29683019  0.03711750  0.58186228    -0.12900
C195        C  0.28166793  0.04965846  0.56716964     0.03800
C196        C  0.25325753  0.03386327  0.56491383    -0.25000
H197        H  0.17761227  0.45064359  0.56608732     0.08900
H198        H  0.19994787  0.49961548  0.56071941     0.12500
H199        H  0.25481612  0.45543195  0.59773583     0.12400
H200        H  0.29607045  0.99987431  0.60133868     0.12200
H201        H  0.31870450  0.04873240  0.58506674     0.12700
H202        H  0.24109800  0.04299438  0.55404462     0.14700
C203        C  0.26550097  0.21570831  0.22621353    -0.05400
C204        C  0.23709647  0.20066364  0.22066987    -0.05300
C205        C  0.22187306  0.21361078  0.22036226    -0.23500
C206        C  0.23476058  0.24184990  0.22544398     0.18800
C207        C  0.26315339  0.25714975  0.23332801     0.16000
C208        C  0.27832630  0.24398382  0.23414766    -0.18500
C209        C  0.27594563  0.28542151  0.23852239    -0.20300
C210        C  0.26080996  0.29846096  0.23380434    -0.12900
C211        C  0.23261273  0.28343615  0.22407295     0.03800
C212        C  0.21971871  0.25502032  0.22112162    -0.25000
H213        H  0.22650926  0.17890668  0.21473285     0.08900
H214        H  0.20007082  0.20157570  0.21466285     0.12500
H215        H  0.30012055  0.25591402  0.23960183     0.12400
H216        H  0.29769809  0.29748111  0.24505997     0.12200
H217        H  0.27133038  0.32032700  0.23720451     0.12700
H218        H  0.19806873  0.24298374  0.21365617     0.14700
C219        C  0.05224674  0.26895920  0.85705187    -0.05400
C220        C  0.03945984  0.24133379  0.84154437    -0.05300
C221        C  0.01128047  0.22571691  0.83984421    -0.23500
C222        C  0.49543137  0.23743533  0.85373527     0.18800
C223        C  0.00809364  0.26513451  0.87036574     0.16000
C224        C  0.03642709  0.28073231  0.87180760    -0.18500
C225        C  0.49213058  0.27654401  0.88614363    -0.20300
C226        C  0.46389832  0.26098278  0.88290229    -0.12900
C227        C  0.45116037  0.23364068  0.86454193     0.03800
C228        C  0.46717849  0.22199357  0.85063822    -0.25000
H229        H  0.05118526  0.23184596  0.82940984     0.08900
H230        H  0.00187366  0.20451737  0.82703456     0.12500
H231        H  0.04608568  0.30194546  0.88452807     0.12400
H232        H  0.50148661  0.29762228  0.89991974     0.12200
H233        H  0.45215377  0.27048434  0.89462236     0.12700
H234        H  0.45787039  0.20104074  0.83615567     0.14700
O235        O  0.21528795  0.97244752  0.04772689    -0.73100
O236        O  0.24628766  0.53043823  0.91967606    -0.74000
O237        O  0.21802331  0.97115025  0.91909820    -0.62700
O238        O  0.24768670  0.53161532  0.05014916    -0.71100
O239        O  0.28521487  0.52902577  0.05269617    -0.70600
O240        O  0.25798274  0.97332786  0.91967876    -0.61900
O241        O  0.28619621  0.53260196  0.92300214    -0.74400
O242        O  0.25279962  0.96981546  0.04880772    -0.73200
Cu243      Cu  0.23050032  0.00149677  0.98402713     1.04600
Cu244      Cu  0.27194443  0.50123275  0.98607522     1.04300
C245        C  0.22795082  0.96055452  0.06520908     0.93100
C246        C  0.27107788  0.54189695  0.90363738     0.92300
C247        C  0.23340471  0.96180848  0.90200973     0.84400
C248        C  0.27193702  0.54029375  0.07021016     0.90700
N249        N  0.19612649  0.79955910  0.81871824    -0.27400
N250        N  0.21868426  0.82262360  0.80703546    -0.35300
C251        C  0.23607628  0.81641670  0.77886432     0.00900
C252        C  0.22365362  0.78826499  0.77221256     0.07000
C253        C  0.19834032  0.77845112  0.79808969    -0.06100
H254        H  0.25560065  0.83131238  0.76046190     0.07600
H255        H  0.18197014  0.75760904  0.79813001     0.08800
Cu256      Cu  0.22210598  0.86134735  0.82296269     0.44200
Cu257      Cu  0.16110732  0.79740292  0.84993456     0.42000
Cu258      Cu  0.15684819  0.85788500  0.83385617     0.43900
N259        N  0.21704957  0.89567148  0.83893193    -0.34800
N260        N  0.19294519  0.89381349  0.83986064    -0.29100
C261        C  0.19546426  0.91772805  0.85648053    -0.05200
C262        C  0.22248692  0.93601547  0.86704533     0.07100
C263        C  0.23563127  0.92130284  0.85542071     0.00900
H264        H  0.17852728  0.92073669  0.86622547     0.08500
H265        H  0.25685243  0.92816120  0.86341785     0.07600
N266        N  0.12370804  0.82000634  0.84692470    -0.36200
N267        N  0.12543686  0.79797554  0.85467542    -0.28400
C268        C  0.10042530  0.77650279  0.86049202    -0.03700
C269        C  0.08202930  0.78551843  0.85658389     0.04900
C270        C  0.09751997  0.81325698  0.84822208     0.03000
H271        H  0.09608032  0.75586303  0.86601565     0.08100
H272        H  0.09037329  0.82742093  0.84156801     0.07000
N273        N  0.30666578  0.70203124  0.81049133    -0.27400
N274        N  0.28424055  0.67875622  0.79908193    -0.35300
C275        C  0.26617932  0.68461751  0.77327941     0.00900
C276        C  0.27802956  0.71273853  0.76798057     0.07000
C277        C  0.30369952  0.72291362  0.79196790    -0.06100
H278        H  0.24652331  0.66954738  0.75570449     0.07600
H279        H  0.31973418  0.74390431  0.79242347     0.08800
Cu280      Cu  0.28136365  0.64022319  0.81322894     0.44200
Cu281      Cu  0.34234951  0.70538156  0.84041350     0.42000
Cu282      Cu  0.34692744  0.64526216  0.82702820     0.43900
N283        N  0.28698761  0.60650335  0.83214597    -0.34800
N284        N  0.31128337  0.60886353  0.83497804    -0.29100
C285        C  0.30914203  0.58556095  0.85545883    -0.05200
C286        C  0.28215262  0.56719825  0.86657151     0.07100
C287        C  0.26866904  0.58118238  0.85090324     0.00900
H288        H  0.32626339  0.58314959  0.86727852     0.08500
H289        H  0.24736056  0.57418080  0.85790631     0.07600
N290        N  0.37988561  0.68324953  0.84162752    -0.36200
N291        N  0.37812947  0.70527888  0.84894085    -0.28400
C292        C  0.40299814  0.72655303  0.85885159    -0.03700
C293        C  0.42139648  0.71741184  0.85792711     0.04900
C294        C  0.40588649  0.68977241  0.84699630     0.03000
H295        H  0.40724406  0.74715336  0.86468542     0.08100
H296        H  0.41272351  0.67524700  0.84325065     0.07000
O297        O  0.02862105  0.74464275  0.38794862    -0.73100
O298        O  0.47079497  0.71522723  0.25965279    -0.74000
O299        O  0.03022138  0.74684467  0.25918456    -0.62700
O300        O  0.46931653  0.71708143  0.38886893    -0.71100
O301        O  0.47165235  0.75707970  0.38902176    -0.70600
O302        O  0.02801032  0.78454542  0.25629171    -0.61900
O303        O  0.46851480  0.75291981  0.26049630    -0.74400
O304        O  0.03110734  0.78470529  0.38610447    -0.73200
Cu305      Cu  0.49974378  0.72963176  0.32390523     1.04600
Cu306      Cu  0.49986858  0.77120217  0.32287542     1.04300
C307        C  0.04037461  0.76940722  0.40420286     0.93100
C308        C  0.45892566  0.72811410  0.24362766     0.92300
C309        C  0.03957132  0.77132688  0.24024240     0.84400
C310        C  0.46007074  0.73248055  0.40648082     0.90700
N311        N  0.29585882  0.60274130  0.15847362    -0.27400
N312        N  0.31923357  0.60351975  0.14959050    -0.35300
C313        C  0.31383962  0.58030384  0.12076443     0.00900
C314        C  0.28593588  0.56454790  0.11053355     0.07000
C315        C  0.27534749  0.57955990  0.13524055    -0.06100
H316        H  0.32924372  0.57605280  0.10415752     0.07600
H317        H  0.25447331  0.57488565  0.13279765     0.08800
Cu318      Cu  0.35769236  0.63856089  0.16852976     0.44200
Cu319      Cu  0.29251368  0.63484608  0.19097985     0.42000
Cu320      Cu  0.35347397  0.69946972  0.18631919     0.43900
N321        N  0.39193863  0.67788831  0.18475756    -0.34800
N322        N  0.38978908  0.69990848  0.18817628    -0.29100
C323        C  0.41385839  0.72143970  0.20371497    -0.05200
C324        C  0.43253986  0.71301331  0.21091802     0.07100
C325        C  0.41788626  0.68518472  0.19853538     0.00900
H326        H  0.41681814  0.74124560  0.21492323     0.08500
H327        H  0.42509040  0.67099450  0.20398605     0.07600
N328        N  0.31575504  0.69475756  0.20253296    -0.36200
N329        N  0.29341672  0.67091123  0.20604979    -0.28400
C330        C  0.27226775  0.67455529  0.21656314    -0.03700
C331        C  0.28174932  0.70216630  0.22000420     0.04900
C332        C  0.30951769  0.71431074  0.21098879     0.03000
H333        H  0.25151436  0.65816997  0.21995299     0.08100
H334        H  0.32415859  0.73573569  0.20886692     0.07000
N335        N  0.20187504  0.89551875  0.14348946    -0.27400
N336        N  0.17858645  0.89479259  0.13335313    -0.35300
C337        C  0.18454500  0.91872936  0.10723864     0.00900
C338        C  0.21271338  0.93490717  0.10070179     0.07000
C339        C  0.22277688  0.91928659  0.12417264    -0.06100
H340        H  0.16948237  0.92351185  0.09091880     0.07600
H341        H  0.24375160  0.92420969  0.12428716     0.08800
Cu342      Cu  0.13973082  0.85940766  0.15140424     0.44200
Cu343      Cu  0.20545744  0.86354388  0.17544545     0.42000
Cu344      Cu  0.14475464  0.79971064  0.18402441     0.43900
N345        N  0.10557453  0.82026632  0.17341945    -0.34800
N346        N  0.10820647  0.79873159  0.18221571    -0.29100
C347        C  0.08448849  0.77758001  0.20088159    -0.05200
C348        C  0.06544553  0.78567704  0.20501448     0.07100
C349        C  0.07956693  0.81296599  0.18712769     0.00900
H350        H  0.08211153  0.75851381  0.21668521     0.08500
H351        H  0.07201190  0.82697895  0.18898928     0.07600
N352        N  0.18261543  0.80455848  0.19826271    -0.36200
N353        N  0.20518186  0.82822191  0.19586399    -0.28400
C354        C  0.22641575  0.82462112  0.20591888    -0.03700
C355        C  0.21666840  0.79721143  0.21539368     0.04900
C356        C  0.18871541  0.78518886  0.21032418     0.03000
H357        H  0.24734366  0.84075556  0.20462875     0.08100
H358        H  0.17371624  0.76394380  0.21432590     0.07000
O359        O  0.24284746  0.71518263  0.71601733    -0.73100
O360        O  0.21513101  0.74464259  0.58638421    -0.74000
O361        O  0.24516274  0.71520512  0.58734210    -0.62700
O362        O  0.21706878  0.74849767  0.71628465    -0.71100
O363        O  0.25774594  0.78545367  0.71577481    -0.70600
O364        O  0.28348988  0.75470445  0.58424646    -0.61900
O365        O  0.25358246  0.78408861  0.58723518    -0.74400
O366        O  0.28349784  0.75218737  0.71363995    -0.73200
Cu367      Cu  0.22864596  0.72957256  0.65146140     1.04600
Cu368      Cu  0.27094425  0.77041300  0.65006308     1.04300
C369        C  0.26765889  0.72774685  0.73204709     0.93100
C370        C  0.22874139  0.76935607  0.57002829     0.92300
C371        C  0.26981331  0.72985326  0.56875242     0.84100
C372        C  0.23323792  0.77303207  0.73401585     0.90700
N373        N  0.29647681  0.68784281  0.51107254    -0.27400
N374        N  0.31857390  0.71195861  0.50602752    -0.35300
C375        C  0.31163255  0.73082017  0.52007779     0.00900
C376        C  0.28399881  0.71791479  0.53459239     0.07000
C377        C  0.27526873  0.69065500  0.52814781    -0.06100
H378        H  0.32604871  0.75224914  0.52460359     0.07600
H379        H  0.25559137  0.67395957  0.54102266     0.08800
Cu380      Cu  0.35795700  0.71702641  0.48890824     0.44200
Cu381      Cu  0.29692355  0.65195522  0.50937547     0.42000
Cu382      Cu  0.36214423  0.65607959  0.51115079     0.43900
N383        N  0.39395271  0.71465527  0.47386181    -0.34800
N384        N  0.39480775  0.69214995  0.48311304    -0.29100
C385        C  0.41892300  0.69560240  0.46472585    -0.05200
C386        C  0.43457567  0.72165034  0.44279613     0.07100
C387        C  0.41807703  0.73319863  0.44938445     0.00900
H388        H  0.42396156  0.67966555  0.46362851     0.08500
H389        H  0.42265755  0.75302704  0.43343569     0.07600
N390        N  0.32623743  0.62103746  0.52879689    -0.36200
N391        N  0.30236692  0.61948751  0.52659841    -0.28400
C392        C  0.28302855  0.59416040  0.54038885    -0.03700
C393        C  0.29528555  0.57885267  0.55183326     0.04900
C394        C  0.32278109  0.59666723  0.54380190     0.03000
H395        H  0.26169332  0.58772758  0.54242120     0.08100
H396        H  0.33917355  0.59240159  0.54801489     0.07000
N397        N  0.20158661  0.81156453  0.52020802    -0.27400
N398        N  0.17981876  0.78753560  0.51086929    -0.35300
C399        C  0.18698187  0.76853709  0.52105458     0.00900
C400        C  0.21447198  0.78137274  0.53702959     0.07000
C401        C  0.22283280  0.80862278  0.53553959    -0.06100
H402        H  0.17277469  0.74696134  0.52211071     0.07600
H403        H  0.24211341  0.82501469  0.55163531     0.08800
Cu404      Cu  0.14071894  0.78277837  0.49273683     0.44200
Cu405      Cu  0.20078162  0.84700993  0.52944928     0.42000
Cu406      Cu  0.13603408  0.84282829  0.52485762     0.43900
N407        N  0.10556195  0.78614562  0.47489978    -0.34800
N408        N  0.10458935  0.80844484  0.48650937    -0.29100
C409        C  0.08102614  0.80567370  0.46580319    -0.05200
C410        C  0.06585330  0.78019513  0.44035677     0.07100
C411        C  0.08205037  0.76835734  0.44690569     0.00900
H412        H  0.07584005  0.82150489  0.46707689     0.08500
H413        H  0.07759368  0.74874955  0.42945381     0.07600
N414        N  0.17100054  0.87685993  0.55254885    -0.36200
N415        N  0.19498304  0.87866715  0.55300523    -0.28400
C416        C  0.21398197  0.90417368  0.56707291    -0.03700
C417        C  0.20130977  0.91931206  0.57536463     0.04900
C418        C  0.17396806  0.90113751  0.56608278     0.03000
H419        H  0.23549523  0.91131687  0.56740265     0.08100
H420        H  0.15744729  0.90530060  0.56575185     0.07000
C421        C  0.21447275  0.94911615  0.58096190    -0.05400
C422        C  0.19926037  0.96207005  0.57197827    -0.05300
C423        C  0.21202747  0.99018617  0.56855033    -0.23500
C424        C  0.24031557  0.50587060  0.57406411     0.18800
C425        C  0.25565721  0.99328146  0.58605780     0.16000
C426        C  0.24265385  0.96498533  0.59023590    -0.18500
C427        C  0.28403765  0.50912698  0.59075152    -0.20300
C428        C  0.29693538  0.53709391  0.58125247    -0.12900
C429        C  0.28174266  0.54964900  0.56700080     0.03800
C430        C  0.25332450  0.53386466  0.56517263    -0.25000
H431        H  0.17756373  0.95062873  0.56520737     0.08900
H432        H  0.19990085  0.99959816  0.55971131     0.12500
H433        H  0.25468101  0.95545108  0.59846209     0.12400
H434        H  0.29621398  0.49983924  0.60032295     0.12200
H435        H  0.31881894  0.54869559  0.58412541     0.12700
H436        H  0.24113961  0.54300622  0.55468492     0.14700
C437        C  0.26551189  0.71574370  0.22582659    -0.05400
C438        C  0.23710931  0.70069793  0.22023251    -0.05300
C439        C  0.22187629  0.71363482  0.22008763    -0.23500
C440        C  0.23475132  0.74186563  0.22538530     0.18800
C441        C  0.26314305  0.75716615  0.23329283     0.16000
C442        C  0.27832684  0.74400955  0.23393983    -0.18500
C443        C  0.27592165  0.78543045  0.23869757    -0.20300
C444        C  0.26077371  0.79846392  0.23416287    -0.12900
C445        C  0.23257837  0.78343988  0.22440795     0.03800
C446        C  0.21969754  0.75502914  0.22125298    -0.25000
H447        H  0.22653037  0.67894886  0.21414706     0.08900
H448        H  0.20007556  0.70159954  0.21435801     0.12500
H449        H  0.30011976  0.75593911  0.23942381     0.12400
H450        H  0.29767273  0.79749024  0.24525738     0.12200
H451        H  0.27128164  0.82032545  0.23771763     0.12700
H452        H  0.19804949  0.74299432  0.21375431     0.14700
C453        C  0.05225508  0.76890275  0.85695417    -0.05400
C454        C  0.03949125  0.74136746  0.84064311    -0.05300
C455        C  0.01131403  0.72575385  0.83878442    -0.23500
C456        C  0.49548867  0.73747891  0.85355319     0.18800
C457        C  0.00809384  0.76498805  0.87083027     0.16000
C458        C  0.03642590  0.78058771  0.87238674    -0.18500
C459        C  0.49216748  0.77657266  0.88599281    -0.20300
C460        C  0.46393833  0.76102011  0.88259845    -0.12900
C461        C  0.45121237  0.73368917  0.86415257     0.03800
C462        C  0.46723873  0.72204722  0.85029007    -0.25000
H463        H  0.05123940  0.73196362  0.82798374     0.08900
H464        H  0.00192132  0.70462966  0.82532889     0.12500
H465        H  0.04608150  0.80173191  0.88571901     0.12400
H466        H  0.50151442  0.79764120  0.89984322     0.12200
H467        H  0.45218720  0.77051824  0.89428461     0.12700
H468        H  0.45793978  0.70110414  0.83573658     0.14700
O469        O  0.71531389  0.47247180  0.04762917    -0.73100
O470        O  0.74627314  0.03043156  0.91974900    -0.74000
O471        O  0.71803418  0.47117035  0.91899865    -0.62700
O472        O  0.74765763  0.03160520  0.05022721    -0.71100
O473        O  0.78518657  0.02901795  0.05278579    -0.70600
O474        O  0.75798915  0.47333787  0.91956279    -0.61900
O475        O  0.78618381  0.03260040  0.92308966    -0.74400
O476        O  0.75282331  0.46983538  0.04869990    -0.73200
Cu477      Cu  0.73052309  0.50151727  0.98392436     1.04600
Cu478      Cu  0.77192597  0.00122690  0.98615562     1.04300
C479        C  0.72797766  0.46058093  0.06511880     0.93100
C480        C  0.77106399  0.04189276  0.90371836     0.92300
C481        C  0.73340969  0.46182265  0.90190495     0.84400
C482        C  0.77190683  0.04028434  0.07029898     0.90700
N483        N  0.69608732  0.29956438  0.81844435    -0.27400
N484        N  0.71866062  0.32262648  0.80684757    -0.35300
C485        C  0.73605994  0.31641635  0.77871983     0.00900
C486        C  0.72362550  0.28826485  0.77201164     0.07000
C487        C  0.69829818  0.27845605  0.79780712    -0.06100
H488        H  0.75560095  0.33131110  0.76039078     0.07600
H489        H  0.68191919  0.25761807  0.79778918     0.08800
Cu490      Cu  0.72208813  0.36135095  0.82284745     0.44200
Cu491      Cu  0.66106136  0.29741675  0.84957768     0.42000
Cu492      Cu  0.65682036  0.35790963  0.83375377     0.43900
N493        N  0.71703191  0.39567584  0.83884713    -0.34800
N494        N  0.69293046  0.39382559  0.83978305    -0.29100
C495        C  0.69545825  0.41774443  0.85639722    -0.05200
C496        C  0.72248288  0.43602652  0.86695126     0.07100
C497        C  0.73561952  0.42130661  0.85532700     0.00900
H498        H  0.67852577  0.42076085  0.86613786     0.08500
H499        H  0.75684062  0.42816105  0.86331171     0.07600
N500        N  0.62366725  0.32002779  0.84670230    -0.36200
N501        N  0.62539166  0.29798965  0.85434890    -0.28400
C502        C  0.60037976  0.27651787  0.86016118    -0.03700
C503        C  0.58198661  0.28554069  0.85636328     0.04900
C504        C  0.59748049  0.31328355  0.84806370     0.03000
H505        H  0.59603337  0.25587586  0.86564552     0.08100
H506        H  0.59033732  0.32745672  0.84153002     0.07000
N507        N  0.80660687  0.20200422  0.81052729    -0.27400
N508        N  0.78418600  0.17873021  0.79908554    -0.35300
C509        C  0.76613626  0.18459432  0.77322734     0.00900
C510        C  0.77799065  0.21271656  0.76792595     0.07000
C511        C  0.80365067  0.22288859  0.79196905    -0.06100
H512        H  0.74648646  0.16952574  0.75561951     0.07600
H513        H  0.81968665  0.24387860  0.79244147     0.08800
Cu514      Cu  0.78131385  0.14019972  0.81327061     0.44200
Cu515      Cu  0.84227837  0.20534683  0.84050973     0.42000
Cu516      Cu  0.84689519  0.14525478  0.82704182     0.43900
N517        N  0.78695583  0.10649126  0.83221411    -0.34800
N518        N  0.81125444  0.10885712  0.83503761    -0.29100
C519        C  0.80912100  0.08555895  0.85552665    -0.05200
C520        C  0.78213415  0.06719313  0.86665252     0.07100
C521        C  0.76864369  0.08117055  0.85098490     0.00900
H522        H  0.82624625  0.08315236  0.86733557     0.08500
H523        H  0.74733442  0.07416387  0.85799223     0.07600
N524        N  0.87984731  0.18325290  0.84156130    -0.36200
N525        N  0.87807560  0.20527132  0.84890445    -0.28400
C526        C  0.90294365  0.22656202  0.85870221    -0.03700
C527        C  0.92136407  0.21744645  0.85768059     0.04900
C528        C  0.90585912  0.18979928  0.84680380     0.03000
H529        H  0.90716584  0.24715335  0.86454549     0.08100
H530        H  0.91270300  0.17528289  0.84296487     0.07000
O531        O  0.52861854  0.24461168  0.38781037    -0.73100
O532        O  0.97080860  0.21523330  0.25955926    -0.74000
O533        O  0.53023797  0.24685973  0.25904803    -0.62700
O534        O  0.96931200  0.21705142  0.38877831    -0.71100
O535        O  0.97165570  0.25705329  0.38899837    -0.70600
O536        O  0.52802161  0.28455815  0.25621440    -0.61900
O537        O  0.96851604  0.25291872  0.26047964    -0.74400
O538        O  0.53110703  0.28467582  0.38601996    -0.73200
Cu539      Cu  0.99975032  0.22962216  0.32383310     1.04600
Cu540      Cu  0.99987185  0.27119069  0.32286175     1.04300
C541        C  0.54036978  0.26937173  0.40409939     0.93100
C542        C  0.95892799  0.22811584  0.24358691     0.92300
C543        C  0.53958948  0.27134828  0.24014808     0.84400
C544        C  0.96007016  0.23244981  0.40642331     0.90700
N545        N  0.79581245  0.10269282  0.15874596    -0.27400
N546        N  0.81919440  0.10349657  0.14976277    -0.35300
C547        C  0.81380824  0.08030255  0.12084002     0.00900
C548        C  0.78590319  0.06453412  0.11064451     0.07000
C549        C  0.77530497  0.07951670  0.13547446    -0.06100
H550        H  0.82921730  0.07607438  0.10415555     0.07600
H551        H  0.75442336  0.07482337  0.13311128     0.08800
Cu552      Cu  0.85765815  0.13853820  0.16869991     0.44200
Cu553      Cu  0.79244246  0.13475846  0.19146895     0.42000
Cu554      Cu  0.85341301  0.19939138  0.18673910     0.43900
N555        N  0.89191416  0.17786743  0.18488531    -0.34800
N556        N  0.88975016  0.19987664  0.18839556    -0.29100
C557        C  0.91382398  0.22141704  0.20387057    -0.05200
C558        C  0.93252625  0.21300854  0.21093593     0.07100
C559        C  0.91787725  0.18517966  0.19854038     0.00900
H560        H  0.91677623  0.24121473  0.21514002     0.08500
H561        H  0.92509831  0.17099931  0.20390607     0.07600
N562        N  0.81569940  0.19467058  0.20304837    -0.36200
N563        N  0.79335672  0.17082947  0.20660385    -0.28400
C564        C  0.77221590  0.17448965  0.21711062    -0.03700
C565        C  0.78170959  0.20210606  0.22050034     0.04900
C566        C  0.80947531  0.21423338  0.21146630     0.03000
H567        H  0.75145812  0.15811223  0.22048001     0.08100
H568        H  0.82412625  0.23565350  0.20928257     0.07000
N569        N  0.70190787  0.39556676  0.14348418    -0.27400
N570        N  0.67861906  0.39483927  0.13334474    -0.35300
C571        C  0.68457667  0.41877035  0.10720220     0.00900
C572        C  0.71274443  0.43494487  0.10064931     0.07000
C573        C  0.72280927  0.41932968  0.12414383    -0.06100
H574        H  0.66951343  0.42354867  0.09086541     0.07600
H575        H  0.74378282  0.42424879  0.12424152     0.08800
Cu576      Cu  0.63976396  0.35945408  0.15140090     0.44200
Cu577      Cu  0.70548440  0.36358293  0.17537423     0.42000
Cu578      Cu  0.64477150  0.29973120  0.18374494     0.43900
N579        N  0.60560313  0.32031096  0.17338755    -0.34800
N580        N  0.60822828  0.29876764  0.18210104    -0.29100
C581        C  0.58450891  0.27761201  0.20074961    -0.05200
C582        C  0.56547136  0.28571434  0.20494886     0.07100
C583        C  0.57959860  0.31301189  0.18712835     0.00900
H584        H  0.58212510  0.25853313  0.21647518     0.08500
H585        H  0.57204822  0.32702784  0.18904389     0.07600
N586        N  0.68263989  0.30456767  0.19779192    -0.36200
N587        N  0.70520375  0.32823567  0.19548492    -0.28400
C588        C  0.72643978  0.32463160  0.20545719    -0.03700
C589        C  0.71669868  0.29721424  0.21479487     0.04900
C590        C  0.68874495  0.28519040  0.20971138     0.03000
H591        H  0.74736332  0.34077807  0.20427062     0.08100
H592        H  0.67374602  0.26394279  0.21364327     0.07000
O593        O  0.74282304  0.21516901  0.71591605    -0.73100
O594        O  0.71513368  0.24462005  0.58621582    -0.74000
O595        O  0.74516710  0.21518860  0.58724446    -0.62700
O596        O  0.71705008  0.24849312  0.71611006    -0.71100
O597        O  0.75772960  0.28544552  0.71563591    -0.70600
O598        O  0.78349032  0.25469181  0.58416024    -0.61900
O599        O  0.75357996  0.28407079  0.58709049    -0.74400
O600        O  0.78347658  0.25216934  0.71355654    -0.73200
Cu601      Cu  0.72863703  0.22955824  0.65132610     1.04600
Cu602      Cu  0.77093478  0.27039896  0.64995081     1.04300
C603        C  0.76763186  0.22772941  0.73196404     0.93100
C604        C  0.72874245  0.26933318  0.56986137     0.92300
C605        C  0.76981964  0.22984035  0.56866959     0.84100
C606        C  0.73321706  0.27302817  0.73384480     0.90700
N607        N  0.79650313  0.18784382  0.51102428    -0.27400
N608        N  0.81860032  0.21196114  0.50601159    -0.35300
C609        C  0.81165302  0.23081873  0.52005451     0.00900
C610        C  0.78401533  0.21790821  0.53453150     0.07000
C611        C  0.77528927  0.19065045  0.52807345    -0.06100
H612        H  0.82606621  0.25224760  0.52459972     0.07600
H613        H  0.75560924  0.17395171  0.54092001     0.08800
Cu614      Cu  0.85798597  0.21703213  0.48893293     0.44200
Cu615      Cu  0.79695024  0.15195852  0.50932344     0.42000
Cu616      Cu  0.86215383  0.15607067  0.51119588     0.43900
N617        N  0.89396808  0.21464176  0.47386192    -0.34800
N618        N  0.89481501  0.19213131  0.48310079    -0.29100
C619        C  0.91892197  0.19557297  0.46467775    -0.05200
C620        C  0.93457755  0.22161969  0.44274449     0.07100
C621        C  0.91808974  0.23317808  0.44936398     0.00900
H622        H  0.92395362  0.17963136  0.46356987     0.08500
H623        H  0.92267537  0.25300938  0.43342501     0.07600
N624        N  0.82624475  0.12103381  0.52886296    -0.36200
N625        N  0.80237698  0.11948769  0.52661554    -0.28400
C626        C  0.78303186  0.09416492  0.54041591    -0.03700
C627        C  0.79528169  0.07885542  0.55191941     0.04900
C628        C  0.82278038  0.09666476  0.54391267     0.03000
H629        H  0.76169706  0.08773636  0.54241372     0.08100
H630        H  0.83916907  0.09239574  0.54816761     0.07000
N631        N  0.70158221  0.31152712  0.51998217    -0.27400
N632        N  0.67981072  0.28749530  0.51070141    -0.35300
C633        C  0.68697595  0.26850022  0.52090780     0.00900
C634        C  0.71447074  0.28134108  0.53684147     0.07000
C635        C  0.72283255  0.30859054  0.53530217    -0.06100
H636        H  0.67276785  0.24692522  0.52201459     0.07600
H637        H  0.74211770  0.32498778  0.55136065     0.08800
Cu638      Cu  0.64070616  0.28273307  0.49262685     0.44200
Cu639      Cu  0.70077955  0.34697394  0.52917437     0.42000
Cu640      Cu  0.63604565  0.34281231  0.52462194     0.43900
N641        N  0.60555101  0.28610287  0.47480488    -0.34800
N642        N  0.60458814  0.30841065  0.48636936    -0.29100
C643        C  0.58102437  0.30563847  0.46566914    -0.05200
C644        C  0.56584218  0.28015225  0.44026923     0.07100
C645        C  0.58203287  0.26830885  0.44684274     0.00900
H646        H  0.57584710  0.32147631  0.46689896     0.08500
H647        H  0.57756970  0.24869511  0.42941812     0.07600
N648        N  0.67101807  0.37684019  0.55230325    -0.36200
N649        N  0.69499529  0.37863650  0.55275273    -0.28400
C650        C  0.71399999  0.40413341  0.56687369    -0.03700
C651        C  0.70133796  0.41927920  0.57521241     0.04900
C652        C  0.67399475  0.40111697  0.56589366     0.03000
H653        H  0.73550976  0.41126179  0.56723380     0.08100
H654        H  0.65747912  0.40528727  0.56558400     0.07000
C655        C  0.71451096  0.44908197  0.58091298    -0.05400
C656        C  0.69928539  0.46204263  0.57225603    -0.05300
C657        C  0.71205013  0.49016053  0.56888630    -0.23500
C658        C  0.74029728  0.00587891  0.57415739     0.18800
C659        C  0.75570713  0.49324387  0.58583096     0.16000
C660        C  0.74270812  0.46494676  0.58995265    -0.18500
C661        C  0.78401256  0.00913204  0.59094114    -0.20300
C662        C  0.79691597  0.03709740  0.58141874    -0.12900
C663        C  0.78173007  0.04965381  0.56711113     0.03800
C664        C  0.75331180  0.03387236  0.56524724    -0.25000
H665        H  0.67757591  0.45060671  0.56570190     0.08900
H666        H  0.69991006  0.49957796  0.56029254     0.12500
H667        H  0.75475046  0.45541115  0.59793514     0.12400
H668        H  0.79618424  0.99984318  0.60055703     0.12200
H669        H  0.81879879  0.04869667  0.58431849     0.12700
H670        H  0.74113209  0.04301518  0.55471516     0.14700
C671        C  0.76548879  0.21570741  0.22622082    -0.05400
C672        C  0.73707302  0.20065734  0.22097059    -0.05300
C673        C  0.72185304  0.21360930  0.22067317    -0.23500
C674        C  0.73475443  0.24185875  0.22547106     0.18800
C675        C  0.76316259  0.25716846  0.23304573     0.16000
C676        C  0.77833211  0.24399965  0.23385936    -0.18500
C677        C  0.77597116  0.28544999  0.23795681    -0.20300
C678        C  0.76083148  0.29848575  0.23328012    -0.12900
C679        C  0.73261307  0.28344887  0.22386808     0.03800
C680        C  0.71970816  0.25502654  0.22118607    -0.25000
H681        H  0.72646906  0.17888787  0.21528225     0.08900
H682        H  0.70003907  0.20156636  0.21521549     0.12500
H683        H  0.80013603  0.25594150  0.23908146     0.12400
H684        H  0.79773743  0.29751816  0.24424928     0.12200
H685        H  0.77136689  0.32035783  0.23645924     0.12700
H686        H  0.69804170  0.24297794  0.21398467     0.14700
C687        C  0.55221140  0.26892917  0.85687397    -0.05400
C688        C  0.53943052  0.24138823  0.84060530    -0.05300
C689        C  0.51125187  0.22576918  0.83893701    -0.23500
C690        C  0.99546063  0.23747036  0.85381894     0.18800
C691        C  0.50806256  0.26501034  0.87107534     0.16000
C692        C  0.53639708  0.28061587  0.87244344    -0.18500
C693        C  0.99216589  0.27676176  0.88459447    -0.20300
C694        C  0.96393575  0.26119612  0.88133288    -0.12900
C695        C  0.95118928  0.23375195  0.86378356     0.03800
C696        C  0.96720754  0.22202225  0.85069717    -0.25000
H697        H  0.55116482  0.23198181  0.82784328     0.08900
H698        H  0.50184580  0.20463985  0.82551596     0.12500
H699        H  0.54606561  0.30176446  0.88574408     0.12400
H700        H  0.00152415  0.29791459  0.89774014     0.12200
H701        H  0.95220611  0.27078190  0.89239400     0.12700
H702        H  0.95790400  0.20098729  0.83688780     0.14700
O703        O  0.71532543  0.97247012  0.04770819    -0.73100
O704        O  0.74625149  0.53042289  0.91963708    -0.74000
O705        O  0.71806483  0.97118054  0.91908509    -0.62700
O706        O  0.74764963  0.53160332  0.05011253    -0.71100
O707        O  0.78517619  0.52901097  0.05265929    -0.70600
O708        O  0.75802172  0.97335254  0.91966049    -0.61900
O709        O  0.78615799  0.53258190  0.92296291    -0.74400
O710        O  0.75283555  0.96983536  0.04879306    -0.73200
Cu711      Cu  0.73054171  0.00152214  0.98402190     1.04600
Cu712      Cu  0.77190507  0.50121648  0.98604275     1.04300
C713        C  0.72798592  0.96057493  0.06518936     0.93100
C714        C  0.77104067  0.54187706  0.90359290     0.92300
C715        C  0.73344331  0.96183603  0.90199312     0.84400
C716        C  0.77189985  0.54028044  0.07017370     0.90700
N717        N  0.69612676  0.79957475  0.81865204    -0.27400
N718        N  0.71868513  0.82263765  0.80696031    -0.35300
C719        C  0.73607555  0.81642686  0.77879433     0.00900
C720        C  0.72365221  0.78827427  0.77215839     0.07000
C721        C  0.69833941  0.77846413  0.79803671    -0.06100
H722        H  0.75560064  0.83132022  0.76039035     0.07600
H723        H  0.68196954  0.75762197  0.79809204     0.08800
Cu724      Cu  0.72211458  0.86136520  0.82289386     0.44200
Cu725      Cu  0.66111042  0.79742293  0.84988600     0.42000
Cu726      Cu  0.65686503  0.85791521  0.83390254     0.43900
N727        N  0.71706962  0.89569477  0.83889969    -0.34800
N728        N  0.69296689  0.89383997  0.83986676    -0.29100
C729        C  0.69549300  0.91775626  0.85649584    -0.05200
C730        C  0.72251869  0.93604214  0.86702863     0.07100
C731        C  0.73565761  0.92132628  0.85537560     0.00900
H732        H  0.67855974  0.92076728  0.86627027     0.08500
H733        H  0.75688031  0.92818289  0.86334315     0.07600
N734        N  0.62372149  0.82004115  0.84698937    -0.36200
N735        N  0.62544486  0.79800530  0.85469973    -0.28400
C736        C  0.60043136  0.77653668  0.86053076    -0.03700
C737        C  0.58204031  0.78556057  0.85667411     0.04900
C738        C  0.59753577  0.81329945  0.84832849     0.03000
H739        H  0.59608106  0.75589387  0.86602461     0.08100
H740        H  0.59039313  0.82746843  0.84170706     0.07000
N741        N  0.80666454  0.70201078  0.81038512    -0.27400
N742        N  0.78422964  0.67874053  0.79900885    -0.35300
C743        C  0.76616804  0.68461035  0.77324311     0.00900
C744        C  0.77802810  0.71273233  0.76793508     0.07000
C745        C  0.80370453  0.72289883  0.79187757    -0.06100
H746        H  0.74650408  0.66954482  0.75569673     0.07600
H747        H  0.81974682  0.74388637  0.79230895     0.08800
Cu748      Cu  0.78134434  0.64020362  0.81315075     0.44200
Cu749      Cu  0.84234621  0.70533877  0.84023458     0.42000
Cu750      Cu  0.84690584  0.64520906  0.82684182     0.43900
N751        N  0.78695977  0.60647824  0.83206366    -0.34800
N752        N  0.81125099  0.60882562  0.83485752    -0.29100
C753        C  0.80910365  0.58552227  0.85535044    -0.05200
C754        C  0.78211545  0.56717281  0.86651005     0.07100
C755        C  0.76863827  0.58116453  0.85085645     0.00900
H756        H  0.82622245  0.58310246  0.86714325     0.08500
H757        H  0.74733401  0.57417420  0.85789286     0.07600
N758        N  0.87987291  0.68319344  0.84140537    -0.36200
N759        N  0.87812035  0.70522470  0.84871854    -0.28400
C760        C  0.90298930  0.72649673  0.85862606    -0.03700
C761        C  0.92138539  0.71735319  0.85770427     0.04900
C762        C  0.90587349  0.68971366  0.84677243     0.03000
H763        H  0.90723523  0.74709654  0.86446870     0.08100
H764        H  0.91270847  0.67518645  0.84303311     0.07000
O765        O  0.52863463  0.74467247  0.38795879    -0.73100
O766        O  0.97077286  0.71519712  0.25965213    -0.74000
O767        O  0.53024327  0.74687327  0.25919186    -0.62700
O768        O  0.96929897  0.71704765  0.38886996    -0.71100
O769        O  0.97163273  0.75704492  0.38902772    -0.70600
O770        O  0.52803360  0.78457453  0.25628996    -0.61900
O771        O  0.96849280  0.75288962  0.26049891    -0.74400
O772        O  0.53112492  0.78473692  0.38610607    -0.73200
Cu773      Cu  0.99972478  0.72960105  0.32390085     1.04600
Cu774      Cu  0.99984761  0.77117041  0.32287869     1.04300
C775        C  0.54038765  0.76943649  0.40421445     0.93100
C776        C  0.95890406  0.72808447  0.24362578     0.92300
C777        C  0.53959385  0.77135478  0.24024333     0.84400
C778        C  0.96005209  0.73244549  0.40648470     0.90700
N779        N  0.79582878  0.60272257  0.15847088    -0.27400
N780        N  0.81920258  0.60350138  0.14956759    -0.35300
C781        C  0.81380583  0.58028851  0.12072258     0.00900
C782        C  0.78590128  0.56453390  0.11050006     0.07000
C783        C  0.77531514  0.57954380  0.13523178    -0.06100
H784        H  0.82920843  0.57603848  0.10409965     0.07600
H785        H  0.75444070  0.57486973  0.13280464     0.08800
Cu786      Cu  0.85766444  0.63853989  0.16850919     0.44200
Cu787      Cu  0.79249186  0.63482772  0.19100974     0.42000
Cu788      Cu  0.85346445  0.69945466  0.18621082     0.43900
N789        N  0.89191873  0.67786431  0.18472772    -0.34800
N790        N  0.88977664  0.69988940  0.18810771    -0.29100
C791        C  0.91384643  0.72141854  0.20365433    -0.05200
C792        C  0.93252064  0.71298529  0.21090322     0.07100
C793        C  0.91786208  0.68515518  0.19853799     0.00900
H794        H  0.91681030  0.74122824  0.21483729     0.08500
H795        H  0.92505916  0.67096084  0.20402293     0.07600
N796        N  0.81575129  0.69474601  0.20248157    -0.36200
N797        N  0.79341240  0.67090254  0.20606064    -0.28400
C798        C  0.77227080  0.67455439  0.21661135    -0.03700
C799        C  0.78175778  0.70216741  0.22001111     0.04900
C800        C  0.80952169  0.71430457  0.21093241     0.03000
H801        H  0.75151785  0.65817220  0.22004728     0.08100
H802        H  0.82416516  0.73572767  0.20876646     0.07000
N803        N  0.70189759  0.89554150  0.14348987    -0.27400
N804        N  0.67861023  0.89481249  0.13331499    -0.35300
C805        C  0.68457334  0.91874759  0.10718425     0.00900
C806        C  0.71274328  0.93492669  0.10067680     0.07000
C807        C  0.72280313  0.91930881  0.12418174    -0.06100
H808        H  0.66951352  0.92352832  0.09083461     0.07600
H809        H  0.74377814  0.92423287  0.12432484     0.08800
Cu810      Cu  0.63975184  0.85942483  0.15134487     0.44200
Cu811      Cu  0.70547140  0.86356513  0.17545682     0.42000
Cu812      Cu  0.64476627  0.79971741  0.18388932     0.43900
N813        N  0.60559274  0.82028518  0.17337303    -0.34800
N814        N  0.60822074  0.79874710  0.18215227    -0.29100
C815        C  0.58450424  0.77759929  0.20084091    -0.05200
C816        C  0.56546615  0.78570203  0.20500376     0.07100
C817        C  0.57958910  0.81299042  0.18711170     0.00900
H818        H  0.58212541  0.75853078  0.21663213     0.08500
H819        H  0.57203842  0.82700672  0.18898815     0.07600
N820        N  0.68263099  0.80456563  0.19807892    -0.36200
N821        N  0.70519441  0.82823357  0.19574909    -0.28400
C822        C  0.72643013  0.82463460  0.20578544    -0.03700
C823        C  0.71668833  0.79722101  0.21518038     0.04900
C824        C  0.68873548  0.78519408  0.21007562     0.03000
H825        H  0.74735539  0.84077664  0.20455809     0.08100
H826        H  0.67373843  0.76394615  0.21402052     0.07000
O827        O  0.74284424  0.71518345  0.71600376    -0.73100
O828        O  0.71512351  0.74463255  0.58636375    -0.74000
O829        O  0.74515631  0.71519721  0.58733141    -0.62700
O830        O  0.71706628  0.74849992  0.71625824    -0.71100
O831        O  0.75774463  0.78545411  0.71573892    -0.70600
O832        O  0.78348226  0.75469719  0.58421465    -0.61900
O833        O  0.75357375  0.78407982  0.58720106    -0.74400
O834        O  0.78349686  0.75218463  0.71360488    -0.73200
Cu835      Cu  0.72864126  0.72956898  0.65144457     1.04600
Cu836      Cu  0.77093977  0.77040867  0.65002903     1.04300
C837        C  0.76765739  0.72774507  0.73201836     0.93100
C838        C  0.72873186  0.76934510  0.57000160     0.92300
C839        C  0.76980586  0.72984445  0.56873419     0.84100
C840        C  0.73323628  0.77303582  0.73397873     0.90700
N841        N  0.79646555  0.68782804  0.51107819    -0.27400
N842        N  0.81856496  0.71194216  0.50603846    -0.35300
C843        C  0.81162581  0.73080607  0.52008023     0.00900
C844        C  0.78399100  0.71790350  0.53458365     0.07000
C845        C  0.77525809  0.69064319  0.52814191    -0.06100
H846        H  0.82604364  0.75223449  0.52460810     0.07600
H847        H  0.75557885  0.67394931  0.54101084     0.08800
Cu848      Cu  0.85794598  0.71700249  0.48893318     0.44200
Cu849      Cu  0.79690752  0.65193912  0.50939065     0.42000
Cu850      Cu  0.86212157  0.65604709  0.51116736     0.43900
N851        N  0.89393679  0.71462351  0.47387779    -0.34800
N852        N  0.89478785  0.69211542  0.48311888    -0.29100
C853        C  0.91890135  0.69556519  0.46472350    -0.05200
C854        C  0.93455687  0.72161431  0.44280091     0.07100
C855        C  0.91806158  0.73316569  0.44940067     0.00900
H856        H  0.92393723  0.67962654  0.46361858     0.08500
H857        H  0.92264479  0.75299611  0.43346073     0.07600
N858        N  0.82620946  0.62101092  0.52883143    -0.36200
N859        N  0.80234222  0.61946829  0.52662874    -0.28400
C860        C  0.78299805  0.59414375  0.54041802    -0.03700
C861        C  0.79524724  0.57882946  0.55186347     0.04900
C862        C  0.82274461  0.59663739  0.54383930     0.03000
H863        H  0.76166414  0.58771683  0.54245205     0.08100
H864        H  0.83913128  0.59236281  0.54804758     0.07000
N865        N  0.70157579  0.81154986  0.52016673    -0.27400
N866        N  0.67980323  0.78752057  0.51087118    -0.35300
C867        C  0.68696447  0.76852155  0.52106675     0.00900
C868        C  0.71445860  0.78135776  0.53700530     0.07000
C869        C  0.72282343  0.80860830  0.53548334    -0.06100
H870        H  0.67275472  0.74694672  0.52215620     0.07600
H871        H  0.74210933  0.82500245  0.55154718     0.08800
Cu872      Cu  0.64070588  0.78277293  0.49278148     0.44200
Cu873      Cu  0.70077507  0.84699774  0.52937327     0.42000
Cu874      Cu  0.63604771  0.84285348  0.52485014     0.43900
N875        N  0.60556136  0.78615952  0.47494488    -0.34800
N876        N  0.60459804  0.80846561  0.48653135    -0.29100
C877        C  0.58103919  0.80570062  0.46581305    -0.05200
C878        C  0.56586076  0.78022000  0.44038233     0.07100
C879        C  0.58204859  0.76837377  0.44695412     0.00900
H880        H  0.57586122  0.82153780  0.46706297     0.08500
H881        H  0.57758604  0.74876223  0.42951553     0.07600
N882        N  0.67102573  0.87687635  0.55252401    -0.36200
N883        N  0.69500009  0.87866608  0.55295837    -0.28400
C884        C  0.71401065  0.90416181  0.56706831    -0.03700
C885        C  0.70135592  0.91931423  0.57541716     0.04900
C886        C  0.67401044  0.90115666  0.56611273     0.03000
H887        H  0.73551901  0.91128349  0.56741920     0.08100
H888        H  0.65749847  0.90533251  0.56580854     0.07000
C889        C  0.71453622  0.94911773  0.58112789    -0.05400
C890        C  0.69930923  0.96208397  0.57258316    -0.05300
C891        C  0.71207703  0.99020292  0.56922405    -0.23500
C892        C  0.74026583  0.50584162  0.57392688     0.18800
C893        C  0.75574124  0.99327485  0.58595090     0.16000
C894        C  0.74273979  0.96497807  0.59006992    -0.18500
C895        C  0.78397426  0.50910838  0.59093362    -0.20300
C896        C  0.79687726  0.53707524  0.58142593    -0.12900
C897        C  0.78169472  0.54962469  0.56701707     0.03800
C898        C  0.75327946  0.53383491  0.56502299    -0.25000
H899        H  0.67759455  0.95065176  0.56611412     0.08900
H900        H  0.69993473  0.99962483  0.56071727     0.12500
H901        H  0.75478522  0.95543975  0.59796739     0.12400
H902        H  0.79614374  0.49982490  0.60063502     0.12200
H903        H  0.81875736  0.54868288  0.58442665     0.12700
H904        H  0.74110323  0.54297219  0.55439529     0.14700
C905        C  0.76552684  0.71575147  0.22584153    -0.05400
C906        C  0.73711870  0.70070198  0.22039528    -0.05300
C907        C  0.72188801  0.71364132  0.22023585    -0.23500
C908        C  0.73477093  0.74187808  0.22537026     0.18800
C909        C  0.76316969  0.75718404  0.23313878     0.16000
C910        C  0.77835131  0.74402574  0.23380421    -0.18500
C911        C  0.77595649  0.78545389  0.23838483    -0.20300
C912        C  0.76080799  0.79848558  0.23382733    -0.12900
C913        C  0.73260348  0.78345473  0.22420566     0.03800
C914        C  0.71971660  0.75504025  0.22121261    -0.25000
H915        H  0.72653147  0.67894625  0.21443664     0.08900
H916        H  0.70008179  0.70160182  0.21461897     0.12500
H917        H  0.80014923  0.75596038  0.23917633     0.12400
H918        H  0.79771369  0.79751838  0.24483682     0.12200
H919        H  0.77132414  0.82035071  0.23725547     0.12700
H920        H  0.69806123  0.74299833  0.21383334     0.14700
C921        C  0.55226543  0.76895122  0.85705500    -0.05400
C922        C  0.53949560  0.74142215  0.84068706    -0.05300
C923        C  0.51131827  0.72581408  0.83883418    -0.23500
C924        C  0.99547911  0.73741988  0.85343885     0.18800
C925        C  0.50810843  0.76504087  0.87099910     0.16000
C926        C  0.53644163  0.78063589  0.87254789    -0.18500
C927        C  0.99214962  0.77652231  0.88576218    -0.20300
C928        C  0.96392195  0.76096686  0.88235403    -0.12900
C929        C  0.95119997  0.73363016  0.86395454     0.03800
C930        C  0.96722934  0.72198433  0.85016218    -0.25000
H931        H  0.55123929  0.73201940  0.82797833     0.08900
H932        H  0.50192112  0.70469473  0.82533476     0.12500
H933        H  0.54610240  0.80177561  0.88592109     0.12400
H934        H  0.00149299  0.79759547  0.89957224     0.12200
H935        H  0.95216956  0.77046894  0.89398978     0.12700
H936        H  0.95793320  0.70103581  0.83565262     0.14700
loop_ 
_geom_bond_atom_site_label_1 
_geom_bond_atom_site_label_2 
_geom_bond_distance 
_geom_bond_site_symmetry_2 
_ccdc_geom_bond_type 
O1           Cu9   1.992   1_554  S
O1           C11   1.271       .  A
O2         Cu243   1.997       .  S
O2           C12   1.272       .  A
O3           Cu9   2.059       .  S
O3           C13   1.287       .  A
O4         Cu243   2.066   1_554  S
O4           C14   1.287       .  A
O5          Cu10   1.990   1_554  S
O5           C14   1.271       .  A
O6         Cu244   1.990       .  S
O6           C13   1.271       .  A
O7          Cu10   2.069       .  S
O7           C12   1.288       .  A
O8         Cu244   2.070   1_554  S
O8           C11   1.289       .  A
Cu9         O236   1.997       .  S
Cu9         O238   2.066   1_556  S
Cu9        Cu244   2.367       .  S
Cu10        O240   1.990   1_545  S
Cu10        O242   2.070   1_546  S
Cu10       Cu243   2.367       .  S
C11         C104   1.488       .  S
C12          C52   1.489       .  S
C13          C28   1.484       .  S
C14          C80   1.484       .  S
N15          N16   1.323       .  A
N15          C19   1.347       .  A
N15         Cu23   2.052       .  S
N16          C17   1.353       .  A
N16         Cu22   2.145       .  S
C17          C18   1.399       .  A
C17          H20   1.082       .  S
C18         C138   1.487       .  S
C18          C19   1.378       .  A
C19          H21   1.082       .  S
Cu22         N25   2.144       .  S
Cu23         N33   2.052       .  S
Cu24         N26   2.054       .  S
Cu24         N32   2.055       .  S
N25          N26   1.324       .  A
N25          C29   1.353       .  A
N26          C27   1.346       .  A
C27          C28   1.378       .  A
C27          H30   1.082       .  S
C28          C29   1.399       .  A
C29          H31   1.082       .  S
N32          N33   1.319       .  A
N32          C36   1.342       .  A
N33          C34   1.340       .  A
C34          C35   1.383       .  A
C34          H37   1.081       .  S
C35         C219   1.472       .  S
C35          C36   1.384       .  A
C36          H38   1.081       .  S
N39          N40   1.324       .  A
N39          C43   1.346       .  A
N39         Cu47   2.050       .  S
N40          C41   1.353       .  A
N40         Cu46   2.143       .  S
C41          C42   1.398       .  A
C41          H44   1.083       .  S
C42         C135   1.483       .  S
C42          C43   1.377       .  A
C43          H45   1.082       .  S
Cu46         N49   2.142       .  S
Cu47         N57   2.050       .  S
Cu48         N50   2.058       .  S
Cu48         N56   2.058       .  S
N49          N50   1.324       .  A
N49          C53   1.353       .  A
N50          C51   1.348       .  A
C51          C52   1.380       .  A
C51          H54   1.082       .  S
C52          C53   1.399       .  A
C53          H55   1.082       .  S
N56          N57   1.319       .  A
N56          C60   1.340       .  A
N57          C58   1.342       .  A
C58          C59   1.385       .  A
C58          H61   1.081       .  S
C59         C227   1.478       .  S
C59          C60   1.387       .  A
C60          H62   1.081       .  S
O63        Cu539   1.989   1_455  S
O63          C73   1.271       .  A
O64         Cu71   1.994       .  S
O64          C74   1.272       .  A
O65        Cu539   2.061   1_455  S
O65          C75   1.287       .  A
O66         Cu71   2.064       .  S
O66          C76   1.287       .  A
O67         Cu72   1.998       .  S
O67          C76   1.273       .  A
O68        Cu540   2.004   1_455  S
O68          C75   1.273       .  A
O69         Cu72   2.058       .  S
O69          C74   1.287       .  A
O70        Cu540   2.065   1_455  S
O70          C73   1.287       .  A
Cu71        O531   1.989       .  S
Cu71        O533   2.060       .  S
Cu71        Cu72   2.367       .  S
Cu72        O536   2.004       .  S
Cu72        O538   2.065       .  S
C73         C176   1.484       .  S
C74          C90   1.485       .  S
C75         C114   1.490       .  S
C76         C152   1.488       .  S
N77          N78   1.324       .  A
N77          C81   1.347       .  A
N77         Cu85   2.057       .  S
N78          C79   1.351       .  A
N78         Cu84   2.138       .  S
C79          C80   1.397       .  A
C79          H82   1.083       .  S
C80          C81   1.378       .  A
C81          H83   1.082       .  S
Cu84         N87   2.138       .  S
Cu85         N95   2.057       .  S
Cu86         N88   2.057       .  S
Cu86         N94   2.058       .  S
N87          N88   1.323       .  A
N87          C91   1.353       .  A
N88          C89   1.346       .  A
C89          C90   1.379       .  A
C89          H92   1.082       .  S
C90          C91   1.399       .  A
C91          H93   1.082       .  S
N94          N95   1.319       .  A
N94          C98   1.342       .  A
N95          C96   1.341       .  A
C96          C97   1.387       .  A
C96          H99   1.081       .  S
C97         C203   1.480       .  S
C97          C98   1.387       .  A
C98         H100   1.081       .  S
N101        N102   1.325       .  A
N101        C105   1.347       .  A
N101       Cu109   2.055       .  S
N102        C103   1.355       .  A
N102       Cu108   2.156       .  S
C103        C104   1.401       .  A
C103        H106   1.082       .  S
C104        C105   1.377       .  A
C105        H107   1.082       .  S
Cu108       N111   2.155       .  S
Cu109       N119   2.055       .  S
Cu110       N112   2.056       .  S
Cu110       N118   2.056       .  S
N111        N112   1.324       .  A
N111        C115   1.356       .  A
N112        C113   1.346       .  A
C113        C114   1.379       .  A
C113        H116   1.082       .  S
C114        C115   1.402       .  A
C115        H117   1.082       .  S
N118        N119   1.318       .  A
N118        C122   1.340       .  A
N119        C120   1.343       .  A
C120        C121   1.387       .  A
C120        H123   1.081       .  S
C121        C211   1.480       .  S
C121        C122   1.387       .  A
C122        H124   1.080       .  S
O125       Cu133   1.989       .  S
O125        C135   1.271       .  A
O126       Cu133   1.998       .  S
O126        C136   1.272       .  A
O127       Cu133   2.064       .  S
O127        C137   1.287       .  A
O128       Cu133   2.070       .  S
O128        C138   1.288       .  A
O129       Cu134   1.993       .  S
O129        C138   1.272       .  A
O130       Cu134   1.997       .  S
O130        C137   1.272       .  A
O131       Cu134   2.054       .  S
O131        C136   1.287       .  A
O132       Cu134   2.060       .  S
O132        C135   1.287       .  A
Cu133      Cu134   2.367       .  S
C136        C166   1.484       .  S
C137        C142   1.488       .  S
N139        N140   1.324       .  A
N139        C143   1.348       .  A
N139       Cu147   2.059       .  S
N140        C141   1.353       .  A
N140       Cu146   2.146       .  S
C141        C142   1.399       .  A
C141        H144   1.082       .  S
C142        C143   1.381       .  A
C143        H145   1.082       .  S
Cu146       N149   2.147       .  S
Cu147       N157   2.059       .  S
Cu148       N150   2.056       .  S
Cu148       N156   2.056       .  S
N149        N150   1.324       .  A
N149        C153   1.354       .  A
N150        C151   1.347       .  A
C151        C152   1.379       .  A
C151        H154   1.082       .  S
C152        C153   1.399       .  A
C153        H155   1.082       .  S
N156        N157   1.319       .  A
N156        C160   1.343       .  A
N157        C158   1.340       .  A
C158        C159   1.387       .  A
C158        H161   1.080       .  S
C159        C195   1.480       .  S
C159        C160   1.386       .  A
C160        H162   1.081       .  S
N163        N164   1.323       .  A
N163        C167   1.345       .  A
N163       Cu171   2.054       .  S
N164        C165   1.354       .  A
N164       Cu170   2.142       .  S
C165        C166   1.400       .  A
C165        H168   1.082       .  S
C166        C167   1.378       .  A
C167        H169   1.082       .  S
Cu170       N173   2.142       .  S
Cu171       N181   2.055       .  S
Cu172       N174   2.054       .  S
Cu172       N180   2.053       .  S
N173        N174   1.324       .  A
N173        C177   1.352       .  A
N174        C175   1.348       .  A
C175        C176   1.378       .  A
C175        H178   1.082       .  S
C176        C177   1.398       .  A
C177        H179   1.082       .  S
N180        N181   1.318       .  A
N180        C184   1.340       .  A
N181        C182   1.342       .  A
C182        C183   1.387       .  A
C182        H185   1.081       .  S
C183        C187   1.479       .  S
C183        C184   1.386       .  A
C184        H186   1.080       .  S
C187        C188   1.406       .  A
C187        C192   1.407       .  A
C188        C189   1.391       .  A
C188        H197   1.080       .  S
C189        C424   1.398       .  A
C189        H198   1.084       .  S
C190        C196   1.396       .  A
C190        C423   1.398   1_545  A
C190        C425   1.411   1_545  A
C191        C192   1.401       .  A
C191        C424   1.411       .  A
C191        C427   1.401       .  A
C192        H199   1.082       .  S
C193        C194   1.397       .  A
C193        C425   1.401   1_545  A
C193        H200   1.084   1_545  S
C194        C195   1.407       .  A
C194        H201   1.081       .  S
C195        C196   1.404       .  A
C196        H202   1.081       .  S
C203        C204   1.406       .  A
C203        C208   1.407       .  A
C204        C205   1.393       .  A
C204        H213   1.081       .  S
C205        C206   1.399       .  A
C205        H214   1.084       .  S
C206        C212   1.398       .  A
C206        C207   1.411       .  A
C207        C209   1.401       .  A
C207        C208   1.401       .  A
C208        H215   1.082       .  S
C209        C210   1.397       .  A
C209        H216   1.084       .  S
C210        C211   1.407       .  A
C210        H217   1.081       .  S
C211        C212   1.405       .  A
C212        H218   1.082       .  S
C219        C220   1.404       .  A
C219        C224   1.404       .  A
C220        C221   1.392       .  A
C220        H229   1.082       .  S
C221        C690   1.400   1_455  A
C221        H230   1.084       .  S
C222        C228   1.396       .  A
C222        C689   1.400       .  A
C222        C691   1.412       .  A
C223        C224   1.399       .  A
C223        C690   1.412   1_455  A
C223        C693   1.400   1_455  A
C224        H231   1.083       .  S
C225        C226   1.396       .  A
C225        C691   1.401       .  A
C225        H232   1.084       .  S
C226        C227   1.407       .  A
C226        H233   1.081       .  S
C227        C228   1.404       .  A
C228        H234   1.082       .  S
O235       Cu243   1.992   1_564  S
O235        C245   1.271       .  A
O236        C246   1.272       .  A
O237       Cu243   2.059   1_565  S
O237        C247   1.287       .  A
O238        C248   1.287       .  A
O239       Cu244   1.990   1_554  S
O239        C248   1.271       .  A
O240        C247   1.271       .  A
O241       Cu244   2.069       .  S
O241        C246   1.288       .  A
O242        C245   1.289       .  A
C245        C338   1.488       .  S
C246        C286   1.489       .  S
C247        C262   1.484       .  S
C248        C314   1.484       .  S
N249        N250   1.323       .  A
N249        C253   1.347       .  A
N249       Cu257   2.052       .  S
N250        C251   1.353       .  A
N250       Cu256   2.144       .  S
C251        C252   1.399       .  A
C251        H254   1.082       .  S
C252        C372   1.487       .  S
C252        C253   1.378       .  A
C253        H255   1.082       .  S
Cu256       N259   2.144       .  S
Cu257       N267   2.052       .  S
Cu258       N260   2.054       .  S
Cu258       N266   2.055       .  S
N259        N260   1.324       .  A
N259        C263   1.353       .  A
N260        C261   1.346       .  A
C261        C262   1.378       .  A
C261        H264   1.082       .  S
C262        C263   1.399       .  A
C263        H265   1.082       .  S
N266        N267   1.319       .  A
N266        C270   1.342       .  A
N267        C268   1.340       .  A
C268        C269   1.382       .  A
C268        H271   1.081       .  S
C269        C453   1.471       .  S
C269        C270   1.384       .  A
C270        H272   1.081       .  S
N273        N274   1.324       .  A
N273        C277   1.346       .  A
N273       Cu281   2.050       .  S
N274        C275   1.353       .  A
N274       Cu280   2.142       .  S
C275        C276   1.398       .  A
C275        H278   1.083       .  S
C276        C369   1.483       .  S
C276        C277   1.377       .  A
C277        H279   1.082       .  S
Cu280       N283   2.142       .  S
Cu281       N291   2.050       .  S
Cu282       N284   2.058       .  S
Cu282       N290   2.058       .  S
N283        N284   1.324       .  A
N283        C287   1.353       .  A
N284        C285   1.348       .  A
C285        C286   1.380       .  A
C285        H288   1.082       .  S
C286        C287   1.399       .  A
C287        H289   1.082       .  S
N290        N291   1.319       .  A
N290        C294   1.340       .  A
N291        C292   1.342       .  A
C292        C293   1.385       .  A
C292        H295   1.081       .  S
C293        C461   1.478       .  S
C293        C294   1.387       .  A
C294        H296   1.081       .  S
O297       Cu773   1.989   1_455  S
O297        C307   1.271       .  A
O298       Cu305   1.994       .  S
O298        C308   1.272       .  A
O299       Cu773   2.060   1_455  S
O299        C309   1.287       .  A
O300       Cu305   2.064       .  S
O300        C310   1.287       .  A
O301       Cu306   1.999       .  S
O301        C310   1.273       .  A
O302       Cu774   2.004   1_455  S
O302        C309   1.273       .  A
O303       Cu306   2.058       .  S
O303        C308   1.287       .  A
O304       Cu774   2.065   1_455  S
O304        C307   1.287       .  A
Cu305       O765   1.989       .  S
Cu305       O767   2.060       .  S
Cu305      Cu306   2.367       .  S
Cu306       O770   2.004       .  S
Cu306       O772   2.065       .  S
C307        C410   1.485       .  S
C308        C324   1.485       .  S
C309        C348   1.489       .  S
C310        C386   1.488       .  S
N311        N312   1.324       .  A
N311        C315   1.347       .  A
N311       Cu319   2.057       .  S
N312        C313   1.352       .  A
N312       Cu318   2.138       .  S
C313        C314   1.397       .  A
C313        H316   1.083       .  S
C314        C315   1.378       .  A
C315        H317   1.082       .  S
Cu318       N321   2.138       .  S
Cu319       N329   2.057       .  S
Cu320       N322   2.057       .  S
Cu320       N328   2.058       .  S
N321        N322   1.323       .  A
N321        C325   1.353       .  A
N322        C323   1.346       .  A
C323        C324   1.379       .  A
C323        H326   1.082       .  S
C324        C325   1.399       .  A
C325        H327   1.082       .  S
N328        N329   1.319       .  A
N328        C332   1.342       .  A
N329        C330   1.341       .  A
C330        C331   1.387       .  A
C330        H333   1.081       .  S
C331        C437   1.480       .  S
C331        C332   1.387       .  A
C332        H334   1.081       .  S
N335        N336   1.325       .  A
N335        C339   1.347       .  A
N335       Cu343   2.055       .  S
N336        C337   1.355       .  A
N336       Cu342   2.156       .  S
C337        C338   1.401       .  A
C337        H340   1.082       .  S
C338        C339   1.377       .  A
C339        H341   1.082       .  S
Cu342       N345   2.155       .  S
Cu343       N353   2.055       .  S
Cu344       N346   2.056       .  S
Cu344       N352   2.056       .  S
N345        N346   1.324       .  A
N345        C349   1.356       .  A
N346        C347   1.346       .  A
C347        C348   1.379       .  A
C347        H350   1.082       .  S
C348        C349   1.402       .  A
C349        H351   1.082       .  S
N352        N353   1.318       .  A
N352        C356   1.340       .  A
N353        C354   1.343       .  A
C354        C355   1.387       .  A
C354        H357   1.081       .  S
C355        C445   1.480       .  S
C355        C356   1.387       .  A
C356        H358   1.080       .  S
O359       Cu367   1.989       .  S
O359        C369   1.271       .  A
O360       Cu367   1.998       .  S
O360        C370   1.272       .  A
O361       Cu367   2.064       .  S
O361        C371   1.287       .  A
O362       Cu367   2.070       .  S
O362        C372   1.288       .  A
O363       Cu368   1.993       .  S
O363        C372   1.272       .  A
O364       Cu368   1.997       .  S
O364        C371   1.272       .  A
O365       Cu368   2.054       .  S
O365        C370   1.287       .  A
O366       Cu368   2.060       .  S
O366        C369   1.287       .  A
Cu367      Cu368   2.367       .  S
C370        C400   1.484       .  S
C371        C376   1.488       .  S
N373        N374   1.324       .  A
N373        C377   1.348       .  A
N373       Cu381   2.060       .  S
N374        C375   1.353       .  A
N374       Cu380   2.147       .  S
C375        C376   1.399       .  A
C375        H378   1.082       .  S
C376        C377   1.381       .  A
C377        H379   1.082       .  S
Cu380       N383   2.147       .  S
Cu381       N391   2.060       .  S
Cu382       N384   2.056       .  S
Cu382       N390   2.056       .  S
N383        N384   1.324       .  A
N383        C387   1.354       .  A
N384        C385   1.347       .  A
C385        C386   1.379       .  A
C385        H388   1.082       .  S
C386        C387   1.400       .  A
C387        H389   1.082       .  S
N390        N391   1.319       .  A
N390        C394   1.343       .  A
N391        C392   1.340       .  A
C392        C393   1.387       .  A
C392        H395   1.080       .  S
C393        C429   1.480       .  S
C393        C394   1.386       .  A
C394        H396   1.081       .  S
N397        N398   1.323       .  A
N397        C401   1.345       .  A
N397       Cu405   2.054       .  S
N398        C399   1.354       .  A
N398       Cu404   2.142       .  S
C399        C400   1.400       .  A
C399        H402   1.082       .  S
C400        C401   1.378       .  A
C401        H403   1.082       .  S
Cu404       N407   2.142       .  S
Cu405       N415   2.055       .  S
Cu406       N408   2.054       .  S
Cu406       N414   2.053       .  S
N407        N408   1.324       .  A
N407        C411   1.352       .  A
N408        C409   1.348       .  A
C409        C410   1.378       .  A
C409        H412   1.082       .  S
C410        C411   1.398       .  A
C411        H413   1.082       .  S
N414        N415   1.318       .  A
N414        C418   1.340       .  A
N415        C416   1.342       .  A
C416        C417   1.387       .  A
C416        H419   1.081       .  S
C417        C421   1.479       .  S
C417        C418   1.386       .  A
C418        H420   1.080       .  S
C421        C422   1.406       .  A
C421        C426   1.407       .  A
C422        C423   1.391       .  A
C422        H431   1.080       .  S
C423        H432   1.084       .  S
C424        C430   1.396       .  A
C425        C426   1.401       .  A
C426        H433   1.082       .  S
C427        C428   1.397       .  A
C427        H434   1.084       .  S
C428        C429   1.407       .  A
C428        H435   1.081       .  S
C429        C430   1.404       .  A
C430        H436   1.081       .  S
C437        C438   1.406       .  A
C437        C442   1.407       .  A
C438        C439   1.393       .  A
C438        H447   1.081       .  S
C439        C440   1.399       .  A
C439        H448   1.084       .  S
C440        C446   1.398       .  A
C440        C441   1.411       .  A
C441        C443   1.401       .  A
C441        C442   1.401       .  A
C442        H449   1.082       .  S
C443        C444   1.397       .  A
C443        H450   1.084       .  S
C444        C445   1.407       .  A
C444        H451   1.081       .  S
C445        C446   1.405       .  A
C446        H452   1.082       .  S
C453        C454   1.404       .  A
C453        C458   1.404       .  A
C454        C455   1.392       .  A
C454        H463   1.082       .  S
C455        C924   1.400   1_455  A
C455        H464   1.084       .  S
C456        C923   1.400       .  A
C456        C462   1.396       .  A
C456        C925   1.412       .  A
C457        C924   1.412   1_455  A
C457        C927   1.401   1_455  A
C457        C458   1.399       .  A
C458        H465   1.083       .  S
C459        C925   1.401       .  A
C459        C460   1.396       .  A
C459        H466   1.084       .  S
C460        C461   1.407       .  A
C460        H467   1.081       .  S
C461        C462   1.404       .  A
C462        H468   1.082       .  S
O469       Cu477   1.992   1_554  S
O469        C479   1.271       .  A
O470       Cu711   1.997       .  S
O470        C480   1.272       .  A
O471       Cu477   2.059       .  S
O471        C481   1.287       .  A
O472       Cu711   2.066   1_554  S
O472        C482   1.287       .  A
O473       Cu478   1.990   1_554  S
O473        C482   1.271       .  A
O474       Cu712   1.990       .  S
O474        C481   1.271       .  A
O475       Cu478   2.069       .  S
O475        C480   1.288       .  A
O476       Cu712   2.070   1_554  S
O476        C479   1.289       .  A
Cu477       O704   1.997       .  S
Cu477       O706   2.066   1_556  S
Cu477      Cu712   2.367       .  S
Cu478       O708   1.990   1_545  S
Cu478       O710   2.070   1_546  S
Cu478      Cu711   2.367       .  S
C479        C572   1.488       .  S
C480        C520   1.489       .  S
C481        C496   1.484       .  S
C482        C548   1.484       .  S
N483        N484   1.323       .  A
N483        C487   1.347       .  A
N483       Cu491   2.052       .  S
N484        C485   1.353       .  A
N484       Cu490   2.145       .  S
C485        C486   1.399       .  A
C485        H488   1.082       .  S
C486        C606   1.487       .  S
C486        C487   1.378       .  A
C487        H489   1.082       .  S
Cu490       N493   2.144       .  S
Cu491       N501   2.052       .  S
Cu492       N494   2.054       .  S
Cu492       N500   2.055       .  S
N493        N494   1.324       .  A
N493        C497   1.353       .  A
N494        C495   1.346       .  A
C495        C496   1.378       .  A
C495        H498   1.082       .  S
C496        C497   1.399       .  A
C497        H499   1.082       .  S
N500        N501   1.319       .  A
N500        C504   1.342       .  A
N501        C502   1.340       .  A
C502        C503   1.382       .  A
C502        H505   1.081       .  S
C503        C687   1.471       .  S
C503        C504   1.384       .  A
C504        H506   1.081       .  S
N507        N508   1.324       .  A
N507        C511   1.346       .  A
N507       Cu515   2.050       .  S
N508        C509   1.353       .  A
N508       Cu514   2.143       .  S
C509        C510   1.398       .  A
C509        H512   1.083       .  S
C510        C603   1.483       .  S
C510        C511   1.377       .  A
C511        H513   1.082       .  S
Cu514       N517   2.142       .  S
Cu515       N525   2.050       .  S
Cu516       N518   2.058       .  S
Cu516       N524   2.058       .  S
N517        N518   1.324       .  A
N517        C521   1.353       .  A
N518        C519   1.348       .  A
C519        C520   1.380       .  A
C519        H522   1.082       .  S
C520        C521   1.399       .  A
C521        H523   1.082       .  S
N524        N525   1.318       .  A
N524        C528   1.340       .  A
N525        C526   1.342       .  A
C526        C527   1.386       .  A
C526        H529   1.081       .  S
C527        C695   1.478       .  S
C527        C528   1.387       .  A
C528        H530   1.081       .  S
O531        C541   1.271       .  A
O532       Cu539   1.994       .  S
O532        C542   1.272       .  A
O533        C543   1.287       .  A
O534       Cu539   2.064       .  S
O534        C544   1.287       .  A
O535       Cu540   1.998       .  S
O535        C544   1.273       .  A
O536        C543   1.273       .  A
O537       Cu540   2.058       .  S
O537        C542   1.287       .  A
O538        C541   1.287       .  A
Cu539      Cu540   2.367       .  S
C541        C644   1.484       .  S
C542        C558   1.485       .  S
C543        C582   1.489       .  S
C544        C620   1.488       .  S
N545        N546   1.324       .  A
N545        C549   1.347       .  A
N545       Cu553   2.057       .  S
N546        C547   1.352       .  A
N546       Cu552   2.138       .  S
C547        C548   1.397       .  A
C547        H550   1.083       .  S
C548        C549   1.378       .  A
C549        H551   1.082       .  S
Cu552       N555   2.138       .  S
Cu553       N563   2.057       .  S
Cu554       N556   2.057       .  S
Cu554       N562   2.058       .  S
N555        N556   1.323       .  A
N555        C559   1.353       .  A
N556        C557   1.346       .  A
C557        C558   1.379       .  A
C557        H560   1.082       .  S
C558        C559   1.399       .  A
C559        H561   1.082       .  S
N562        N563   1.319       .  A
N562        C566   1.342       .  A
N563        C564   1.341       .  A
C564        C565   1.387       .  A
C564        H567   1.081       .  S
C565        C671   1.480       .  S
C565        C566   1.387       .  A
C566        H568   1.081       .  S
N569        N570   1.325       .  A
N569        C573   1.347       .  A
N569       Cu577   2.055       .  S
N570        C571   1.355       .  A
N570       Cu576   2.156       .  S
C571        C572   1.401       .  A
C571        H574   1.082       .  S
C572        C573   1.377       .  A
C573        H575   1.082       .  S
Cu576       N579   2.155       .  S
Cu577       N587   2.055       .  S
Cu578       N580   2.056       .  S
Cu578       N586   2.056       .  S
N579        N580   1.324       .  A
N579        C583   1.356       .  A
N580        C581   1.346       .  A
C581        C582   1.379       .  A
C581        H584   1.082       .  S
C582        C583   1.402       .  A
C583        H585   1.082       .  S
N586        N587   1.318       .  A
N586        C590   1.340       .  A
N587        C588   1.343       .  A
C588        C589   1.387       .  A
C588        H591   1.081       .  S
C589        C679   1.481       .  S
C589        C590   1.387       .  A
C590        H592   1.080       .  S
O593       Cu601   1.989       .  S
O593        C603   1.271       .  A
O594       Cu601   1.998       .  S
O594        C604   1.272       .  A
O595       Cu601   2.064       .  S
O595        C605   1.287       .  A
O596       Cu601   2.070       .  S
O596        C606   1.288       .  A
O597       Cu602   1.993       .  S
O597        C606   1.272       .  A
O598       Cu602   1.997       .  S
O598        C605   1.272       .  A
O599       Cu602   2.054       .  S
O599        C604   1.287       .  A
O600       Cu602   2.060       .  S
O600        C603   1.287       .  A
Cu601      Cu602   2.367       .  S
C604        C634   1.484       .  S
C605        C610   1.488       .  S
N607        N608   1.324       .  A
N607        C611   1.348       .  A
N607       Cu615   2.059       .  S
N608        C609   1.353       .  A
N608       Cu614   2.146       .  S
C609        C610   1.399       .  A
C609        H612   1.082       .  S
C610        C611   1.381       .  A
C611        H613   1.082       .  S
Cu614       N617   2.147       .  S
Cu615       N625   2.059       .  S
Cu616       N618   2.056       .  S
Cu616       N624   2.056       .  S
N617        N618   1.324       .  A
N617        C621   1.354       .  A
N618        C619   1.347       .  A
C619        C620   1.379       .  A
C619        H622   1.082       .  S
C620        C621   1.399       .  A
C621        H623   1.082       .  S
N624        N625   1.319       .  A
N624        C628   1.343       .  A
N625        C626   1.340       .  A
C626        C627   1.387       .  A
C626        H629   1.080       .  S
C627        C663   1.480       .  S
C627        C628   1.386       .  A
C628        H630   1.081       .  S
N631        N632   1.323       .  A
N631        C635   1.345       .  A
N631       Cu639   2.054       .  S
N632        C633   1.354       .  A
N632       Cu638   2.142       .  S
C633        C634   1.400       .  A
C633        H636   1.082       .  S
C634        C635   1.378       .  A
C635        H637   1.082       .  S
Cu638       N641   2.142       .  S
Cu639       N649   2.055       .  S
Cu640       N642   2.054       .  S
Cu640       N648   2.053       .  S
N641        N642   1.324       .  A
N641        C645   1.352       .  A
N642        C643   1.348       .  A
C643        C644   1.378       .  A
C643        H646   1.082       .  S
C644        C645   1.398       .  A
C645        H647   1.082       .  S
N648        N649   1.318       .  A
N648        C652   1.340       .  A
N649        C650   1.342       .  A
C650        C651   1.387       .  A
C650        H653   1.081       .  S
C651        C655   1.479       .  S
C651        C652   1.386       .  A
C652        H654   1.080       .  S
C655        C656   1.406       .  A
C655        C660   1.407       .  A
C656        C657   1.391       .  A
C656        H665   1.080       .  S
C657        C892   1.398       .  A
C657        H666   1.084       .  S
C658        C891   1.398   1_545  A
C658        C664   1.396       .  A
C658        C893   1.411   1_545  A
C659        C892   1.411       .  A
C659        C895   1.401       .  A
C659        C660   1.401       .  A
C660        H667   1.082       .  S
C661        C893   1.401   1_545  A
C661        C662   1.397       .  A
C661        H668   1.084   1_545  S
C662        C663   1.407       .  A
C662        H669   1.081       .  S
C663        C664   1.404       .  A
C664        H670   1.081       .  S
C671        C672   1.406       .  A
C671        C676   1.407       .  A
C672        C673   1.393       .  A
C672        H681   1.081       .  S
C673        C674   1.399       .  A
C673        H682   1.084       .  S
C674        C680   1.398       .  A
C674        C675   1.411       .  A
C675        C677   1.401       .  A
C675        C676   1.401       .  A
C676        H683   1.082       .  S
C677        C678   1.397       .  A
C677        H684   1.084       .  S
C678        C679   1.407       .  A
C678        H685   1.081       .  S
C679        C680   1.405       .  A
C680        H686   1.082       .  S
C687        C688   1.404       .  A
C687        C692   1.404       .  A
C688        C689   1.392       .  A
C688        H697   1.082       .  S
C689        H698   1.084       .  S
C690        C696   1.396       .  A
C691        C692   1.400       .  A
C692        H699   1.083       .  S
C693        C694   1.396       .  A
C693        H700   1.084   1_655  S
C694        C695   1.407       .  A
C694        H701   1.081       .  S
C695        C696   1.405       .  A
C696        H702   1.082       .  S
O703       Cu711   1.992   1_564  S
O703        C713   1.271       .  A
O704        C714   1.272       .  A
O705       Cu711   2.059   1_565  S
O705        C715   1.287       .  A
O706        C716   1.287       .  A
O707       Cu712   1.990   1_554  S
O707        C716   1.271       .  A
O708        C715   1.271       .  A
O709       Cu712   2.069       .  S
O709        C714   1.288       .  A
O710        C713   1.289       .  A
C713        C806   1.488       .  S
C714        C754   1.489       .  S
C715        C730   1.484       .  S
C716        C782   1.484       .  S
N717        N718   1.323       .  A
N717        C721   1.347       .  A
N717       Cu725   2.052       .  S
N718        C719   1.353       .  A
N718       Cu724   2.144       .  S
C719        C720   1.399       .  A
C719        H722   1.082       .  S
C720        C840   1.487       .  S
C720        C721   1.378       .  A
C721        H723   1.082       .  S
Cu724       N727   2.144       .  S
Cu725       N735   2.052       .  S
Cu726       N728   2.054       .  S
Cu726       N734   2.055       .  S
N727        N728   1.324       .  A
N727        C731   1.353       .  A
N728        C729   1.346       .  A
C729        C730   1.378       .  A
C729        H732   1.082       .  S
C730        C731   1.399       .  A
C731        H733   1.082       .  S
N734        N735   1.320       .  A
N734        C738   1.342       .  A
N735        C736   1.340       .  A
C736        C737   1.382       .  A
C736        H739   1.081       .  S
C737        C921   1.471       .  S
C737        C738   1.384       .  A
C738        H740   1.081       .  S
N741        N742   1.324       .  A
N741        C745   1.346       .  A
N741       Cu749   2.050       .  S
N742        C743   1.353       .  A
N742       Cu748   2.142       .  S
C743        C744   1.398       .  A
C743        H746   1.083       .  S
C744        C837   1.483       .  S
C744        C745   1.377       .  A
C745        H747   1.082       .  S
Cu748       N751   2.142       .  S
Cu749       N759   2.050       .  S
Cu750       N752   2.058       .  S
Cu750       N758   2.058       .  S
N751        N752   1.324       .  A
N751        C755   1.353       .  A
N752        C753   1.348       .  A
C753        C754   1.380       .  A
C753        H756   1.082       .  S
C754        C755   1.399       .  A
C755        H757   1.082       .  S
N758        N759   1.319       .  A
N758        C762   1.340       .  A
N759        C760   1.342       .  A
C760        C761   1.385       .  A
C760        H763   1.081       .  S
C761        C929   1.478       .  S
C761        C762   1.387       .  A
C762        H764   1.081       .  S
O765        C775   1.271       .  A
O766       Cu773   1.994       .  S
O766        C776   1.272       .  A
O767        C777   1.287       .  A
O768       Cu773   2.064       .  S
O768        C778   1.287       .  A
O769       Cu774   1.999       .  S
O769        C778   1.273       .  A
O770        C777   1.273       .  A
O771       Cu774   2.058       .  S
O771        C776   1.287       .  A
O772        C775   1.287       .  A
Cu773      Cu774   2.367       .  S
C775        C878   1.484       .  S
C776        C792   1.485       .  S
C777        C816   1.489       .  S
C778        C854   1.488       .  S
N779        N780   1.324       .  A
N779        C783   1.347       .  A
N779       Cu787   2.057       .  S
N780        C781   1.352       .  A
N780       Cu786   2.138       .  S
C781        C782   1.397       .  A
C781        H784   1.083       .  S
C782        C783   1.378       .  A
C783        H785   1.082       .  S
Cu786       N789   2.138       .  S
Cu787       N797   2.057       .  S
Cu788       N790   2.057       .  S
Cu788       N796   2.058       .  S
N789        N790   1.323       .  A
N789        C793   1.353       .  A
N790        C791   1.346       .  A
C791        C792   1.379       .  A
C791        H794   1.082       .  S
C792        C793   1.399       .  A
C793        H795   1.082       .  S
N796        N797   1.319       .  A
N796        C800   1.342       .  A
N797        C798   1.341       .  A
C798        C799   1.387       .  A
C798        H801   1.081       .  S
C799        C905   1.480       .  S
C799        C800   1.387       .  A
C800        H802   1.081       .  S
N803        N804   1.325       .  A
N803        C807   1.347       .  A
N803       Cu811   2.055       .  S
N804        C805   1.355       .  A
N804       Cu810   2.156       .  S
C805        C806   1.401       .  A
C805        H808   1.082       .  S
C806        C807   1.377       .  A
C807        H809   1.082       .  S
Cu810       N813   2.155       .  S
Cu811       N821   2.055       .  S
Cu812       N814   2.056       .  S
Cu812       N820   2.056       .  S
N813        N814   1.324       .  A
N813        C817   1.356       .  A
N814        C815   1.346       .  A
C815        C816   1.379       .  A
C815        H818   1.082       .  S
C816        C817   1.402       .  A
C817        H819   1.082       .  S
N820        N821   1.318       .  A
N820        C824   1.340       .  A
N821        C822   1.343       .  A
C822        C823   1.387       .  A
C822        H825   1.081       .  S
C823        C913   1.480       .  S
C823        C824   1.387       .  A
C824        H826   1.080       .  S
O827       Cu835   1.989       .  S
O827        C837   1.271       .  A
O828       Cu835   1.998       .  S
O828        C838   1.272       .  A
O829       Cu835   2.064       .  S
O829        C839   1.287       .  A
O830       Cu835   2.070       .  S
O830        C840   1.288       .  A
O831       Cu836   1.993       .  S
O831        C840   1.272       .  A
O832       Cu836   1.997       .  S
O832        C839   1.272       .  A
O833       Cu836   2.054       .  S
O833        C838   1.287       .  A
O834       Cu836   2.060       .  S
O834        C837   1.287       .  A
Cu835      Cu836   2.367       .  S
C838        C868   1.484       .  S
C839        C844   1.488       .  S
N841        N842   1.324       .  A
N841        C845   1.348       .  A
N841       Cu849   2.060       .  S
N842        C843   1.353       .  A
N842       Cu848   2.147       .  S
C843        C844   1.399       .  A
C843        H846   1.082       .  S
C844        C845   1.381       .  A
C845        H847   1.082       .  S
Cu848       N851   2.147       .  S
Cu849       N859   2.060       .  S
Cu850       N852   2.056       .  S
Cu850       N858   2.056       .  S
N851        N852   1.324       .  A
N851        C855   1.354       .  A
N852        C853   1.347       .  A
C853        C854   1.379       .  A
C853        H856   1.082       .  S
C854        C855   1.400       .  A
C855        H857   1.082       .  S
N858        N859   1.319       .  A
N858        C862   1.343       .  A
N859        C860   1.340       .  A
C860        C861   1.387       .  A
C860        H863   1.080       .  S
C861        C897   1.480       .  S
C861        C862   1.386       .  A
C862        H864   1.081       .  S
N865        N866   1.323       .  A
N865        C869   1.345       .  A
N865       Cu873   2.054       .  S
N866        C867   1.354       .  A
N866       Cu872   2.142       .  S
C867        C868   1.400       .  A
C867        H870   1.082       .  S
C868        C869   1.378       .  A
C869        H871   1.082       .  S
Cu872       N875   2.142       .  S
Cu873       N883   2.055       .  S
Cu874       N876   2.054       .  S
Cu874       N882   2.053       .  S
N875        N876   1.324       .  A
N875        C879   1.352       .  A
N876        C877   1.348       .  A
C877        C878   1.378       .  A
C877        H880   1.082       .  S
C878        C879   1.398       .  A
C879        H881   1.082       .  S
N882        N883   1.318       .  A
N882        C886   1.340       .  A
N883        C884   1.342       .  A
C884        C885   1.387       .  A
C884        H887   1.081       .  S
C885        C889   1.479       .  S
C885        C886   1.386       .  A
C886        H888   1.080       .  S
C889        C890   1.406       .  A
C889        C894   1.407       .  A
C890        C891   1.391       .  A
C890        H899   1.080       .  S
C891        H900   1.084       .  S
C892        C898   1.396       .  A
C893        C894   1.401       .  A
C894        H901   1.082       .  S
C895        C896   1.397       .  A
C895        H902   1.084       .  S
C896        C897   1.407       .  A
C896        H903   1.081       .  S
C897        C898   1.404       .  A
C898        H904   1.081       .  S
C905        C906   1.406       .  A
C905        C910   1.407       .  A
C906        C907   1.393       .  A
C906        H915   1.081       .  S
C907        C908   1.399       .  A
C907        H916   1.084       .  S
C908        C914   1.398       .  A
C908        C909   1.411       .  A
C909        C911   1.401       .  A
C909        C910   1.401       .  A
C910        H917   1.082       .  S
C911        C912   1.397       .  A
C911        H918   1.084       .  S
C912        C913   1.407       .  A
C912        H919   1.081       .  S
C913        C914   1.405       .  A
C914        H920   1.082       .  S
C921        C922   1.404       .  A
C921        C926   1.404       .  A
C922        C923   1.392       .  A
C922        H931   1.082       .  S
C923        H932   1.084       .  S
C924        C930   1.396       .  A
C925        C926   1.399       .  A
C926        H933   1.083       .  S
C927        C928   1.396       .  A
C927        H934   1.084   1_655  S
C928        C929   1.407       .  A
C928        H935   1.081       .  S
C929        C930   1.404       .  A
C930        H936   1.082       .  S
