geometry optimzed in LAMMPS
_audit_creation_date              2020-12-01 
_audit_creation_method            'lammps2cif' 
_symmetry_space_group_name_H-M    'P1' 
_symmetry_Int_Tables_number       1 
_symmetry_cell_setting            triclinic 
loop_ 
_symmetry_equiv_pos_as_xyz 
  x,y,z 
_cell_length_a                    52.53769907 
_cell_length_b                    51.635905312074335 
_cell_length_c                    32.525339752931636 
_cell_angle_alpha                 93.35072451216323 
_cell_angle_beta                  89.19535649339353 
_cell_angle_gamma                 115.52588799741282 
loop_ 
_atom_site_label 
_atom_site_type_symbol 
_atom_site_fract_x 
_atom_site_fract_y 
_atom_site_fract_z 
_atom_site_charge 
C1          C  0.01574961  0.48765021  0.23863995     0.79300
N2          N  0.02948196  0.01629024  0.22991846    -0.79000
C3          C  0.01374627  0.03115807  0.22389008     0.81700
N4          N  0.48683645  0.01685139  0.22284268    -0.79000
C5          C  0.47026112  0.48801279  0.23383291     0.81800
N6          N  0.48633216  0.47357575  0.24167969    -0.80700
C7          C  0.15875498  0.34362800  0.19695591     0.79300
N8          N  0.14676328  0.31489528  0.20088336    -0.79000
C9          C  0.16269009  0.30062637  0.20658056     0.81700
N10         N  0.19138924  0.31554467  0.20895974    -0.79000
C11         C  0.20373513  0.34464300  0.20483622     0.81800
N12         N  0.18728236  0.35854793  0.19895887    -0.80700
C13         C  0.38160218  0.30173980  0.03709109     0.79300
N14         N  0.35959630  0.28077158  0.05650411    -0.79000
C15         C  0.36194227  0.27843743  0.09793619     0.81700
N16         N  0.38592784  0.29644376  0.11842396    -0.79000
C17         C  0.40785675  0.31654761  0.09900340     0.81800
N18         N  0.40519026  0.31917758  0.05859648    -0.80700
Zr19       Zr  0.12083402  0.40818984  0.15812497     2.17500
O20         O  0.16454220  0.42065617  0.11999916    -0.52300
O21         O  0.09943455  0.37552986  0.09702449    -0.75500
O22         O  0.14574686  0.37919662  0.17408041    -0.82300
O23         O  0.11560197  0.47556551  0.12881540    -0.84000
O24         O  0.12032763  0.34974310  0.22363218    -0.79600
O25         O  0.14217999  0.45078647  0.11843701    -0.91300
O26         O  0.05201161  0.35676290  0.10274922    -0.77200
O27         O  0.08157146  0.36709195  0.18078729    -0.86700
O28         O  0.07956435  0.41484563  0.14437139    -0.86400
O29         O  0.12946542  0.40842174  0.23095259    -0.73200
O30         O  0.12594040  0.45187743  0.19611923    -0.85300
Zr31       Zr  0.05440304  0.41940540  0.28169033     2.26400
Zr32       Zr  0.08841930  0.36796907  0.25331598     2.06300
Zr33       Zr  0.08342405  0.45688145  0.18425949     2.10000
Zr34       Zr  0.04088288  0.37448824  0.16852414     1.78800
O35         O  0.10532405  0.50868542  0.18657436    -0.94100
O36         O  0.02081893  0.32265155  0.17568018    -0.41900
O37         O  0.04406513  0.41663670  0.20885103    -0.78500
O38         O  0.04696799  0.37524867  0.24125959    -0.97200
O39         O  0.09496149  0.41130400  0.28960570    -0.90500
O40         O  0.09352692  0.46015129  0.25702639    -0.93400
C41         C  0.07431207  0.35920267  0.08334516     1.00400
C42         C  0.13566129  0.47142272  0.11158652     1.13300
C43         C  0.14045723  0.35842988  0.19771009     1.04100
O44         O  0.06203301  0.31619586  0.24452679    -0.95500
O45         O  0.05642808  0.34904452  0.30989479    -0.91300
O46         O  0.03161597  0.37589244  0.31913096    -0.84400
C47         C  0.03707457  0.35463830  0.32699969     1.10700
O48         O  0.17722094  0.48837434  0.24092239    -0.97500
Zr49       Zr  0.13422892  0.45163246  0.26821316     1.88900
O50         O  0.07993315  0.43211276  0.35071881    -0.74100
O51         O  0.11574855  0.36500248  0.31125274    -0.53400
O52         O  0.17571746  0.44593465  0.28969619    -0.98100
O53         O  0.14643049  0.49643589  0.30837040    -0.55300
O54         O  0.12524465  0.43959323  0.33972361    -0.74700
C55         C  0.10425244  0.43455553  0.36372287     0.97700
O56         O  0.01644163  0.41644649  0.32810262    -0.63500
O57         O  0.05243334  0.45673955  0.12894237    -0.58300
O58         O  0.03066377  0.45195678  0.26569175    -0.95000
O59         O  0.05243934  0.47744997  0.21082322    -0.93400
O60         O  0.01532067  0.38834793  0.11906303    -0.93700
O61         O  0.99024419  0.35244154  0.17769979    -0.92500
C62         C  0.03393559  0.47119474  0.23914789     1.16500
H63         H  0.07781490  0.41658551  0.11527546     0.32500
H64         H  0.03026188  0.35898052  0.24939786     0.43300
H65         H  0.09508162  0.47800932  0.27033711     0.36800
H66         H  0.14645898  0.40640159  0.23659732     0.33300
H67         H  0.00704303  0.31394243  0.15271223     0.25100
H68         H  0.11833955  0.34728172  0.30520213     0.31100
H69         H  0.18056689  0.45572271  0.31750777     0.37000
H70         H  0.02530830  0.38956138  0.09269760     0.31400
H71         H  0.05561621  0.44578249  0.10506008     0.30300
H72         H  0.09833774  0.01605977  0.16406303     0.32000
H73         H  0.16357507  0.49950907  0.32416217     0.30900
H74         H  0.48918644  0.36789675  0.20127663     0.34900
H75         H  0.02182304  0.43622774  0.33997418     0.27700
H76         H  0.16269627  0.40263827  0.10509241     0.31900
H77         H  0.17152447  0.50281863  0.23069569     0.34800
H78         H  0.03308801  0.44452029  0.13806073     0.27400
H79         H  0.50047161  0.41066030  0.31019259     0.40200
H80         H  0.07142634  0.30855467  0.26340144     0.30300
H81         H  0.03625080  0.31712193  0.16847573     0.37900
H82         H  0.13148761  0.49168234  0.32927184     0.29800
H83         H  0.13475234  0.38090462  0.30832030     0.29800
H84         H  0.17955985  0.42511515  0.14097708     0.30100
C85         C  0.19352331  0.12098790  0.02735083     0.79300
N86         N  0.21208733  0.14155059  0.05480228    -0.79000
C87         C  0.22446387  0.13323515  0.08510586     0.81700
N88         N  0.21818990  0.10506321  0.08747211    -0.79000
C89         C  0.20063018  0.08485102  0.06004138     0.81800
N90         N  0.18825549  0.09307248  0.03052372    -0.80700
C91         C  0.40370888  0.29769960  0.42646376     0.79300
N92         N  0.38408321  0.27658983  0.40075233    -0.79000
C93         C  0.39269213  0.26156161  0.37170854     0.81700
N94         N  0.42037985  0.26775457  0.36896784    -0.79000
C95         C  0.43969596  0.28755187  0.39502339     0.81800
N96         N  0.43106109  0.30225918  0.42341218    -0.80700
Zr97       Zr  0.30687673  0.18917382  0.31400291     2.17500
O98         O  0.29937377  0.21780293  0.37096804    -0.52300
O99         O  0.31020530  0.15256787  0.35553086    -0.75500
O100        O  0.26048598  0.16135378  0.34431629    -0.82300
O101        O  0.38359624  0.23564145  0.30603215    -0.84000
O102        O  0.23152817  0.14612591  0.28803572    -0.79600
O103        O  0.34741638  0.22549884  0.35119825    -0.91300
O104        O  0.30002744  0.11570589  0.30747217    -0.77200
O105        O  0.27707318  0.14985230  0.26999118    -0.86700
O106        O  0.33688914  0.17015569  0.28042061    -0.86400
O107        O  0.28399104  0.20752840  0.26693325    -0.73200
O108        O  0.33898484  0.22572585  0.27177067    -0.85300
Zr109      Zr  0.31511577  0.18503869  0.14799294     2.26400
Zr110      Zr  0.25430820  0.16698557  0.22360645     2.06300
Zr111      Zr  0.36873794  0.20694630  0.23892725     2.10000
Zr112      Zr  0.30562045  0.13054520  0.23696583     1.78800
O113        O  0.41310691  0.24939871  0.23150169    -0.94100
O114        O  0.26213765  0.08619109  0.23640527    -0.41900
O115        O  0.33772118  0.16692309  0.19545712    -0.78500
O116        O  0.28284442  0.14722049  0.18824505    -0.97200
O117        O  0.28575365  0.20407940  0.18182945    -0.90500
O118        O  0.34682163  0.22458942  0.19137315    -0.93400
C119        C  0.30372407  0.12606949  0.34501088     1.00400
C120        C  0.37324802  0.23955902  0.34117171     1.13300
C121        C  0.23648805  0.14584760  0.32681269     1.04100
O122        O  0.21225468  0.12200455  0.21605561    -0.95500
O123        O  0.23462423  0.15135156  0.15394069    -0.91300
O124        O  0.27056927  0.16551048  0.10811061    -0.84400
C125        C  0.24424891  0.15284504  0.11713268     1.10700
O126        O  0.30771672  0.27189560  0.27982949    -0.97500
Zr127      Zr  0.31722367  0.24375411  0.22422999     1.88900
O128        O  0.33218387  0.22952413  0.11060164    -0.74100
O129        O  0.22646080  0.19444869  0.22751298    -0.53400
O130        O  0.28451389  0.26180479  0.19992610    -0.98100
O131        O  0.35892741  0.28762245  0.24426808    -0.55300
O132        O  0.33681557  0.26493623  0.15904184    -0.74700
C133        C  0.34075770  0.25615961  0.12267158     0.97700
O134        O  0.31492493  0.15563359  0.08628477    -0.63500
O135        O  0.39740852  0.18382384  0.26186537    -0.58300
O136        O  0.35703670  0.18244790  0.12046558    -0.95000
O137        O  0.39012862  0.20157432  0.17182757    -0.93400
O138        O  0.34420274  0.11639814  0.23808373    -0.93700
O139        O  0.29838250  0.09218708  0.18471299    -0.92500
C140        C  0.38226519  0.19137190  0.13431502     1.16500
H141        H  0.34730389  0.16464927  0.29953552     0.32500
H142        H  0.27119079  0.13096769  0.17018789     0.43300
H143        H  0.36234226  0.23828554  0.17654223     0.36800
H144        H  0.27280255  0.21526819  0.28252153     0.33300
H145        H  0.26669428  0.07279196  0.25200471     0.25100
H146        H  0.22657854  0.20051043  0.25697510     0.31100
H147        H  0.29216084  0.27069959  0.17365802     0.37000
H148        H  0.34661643  0.11380312  0.26746235     0.31400
H149        H  0.39339914  0.16751093  0.24146319     0.30300
H150        H  0.40846306  0.26180841  0.21388750     0.32000
H151        H  0.37344366  0.28846288  0.22396239     0.30900
H152        H  0.30361257  0.10198293  0.15853472     0.34900
H153        H  0.29856710  0.13676248  0.08888842     0.27700
H154        H  0.29431719  0.20535987  0.39462871     0.31900
H155        H  0.31370546  0.26620085  0.30518777     0.34800
H156        H  0.41704571  0.19754930  0.25617600     0.27400
H157        H  0.31016424  0.16429553  0.06293433     0.40200
H158        H  0.21934473  0.10763665  0.20726954     0.30300
H159        H  0.24912470  0.09079578  0.25443236     0.37900
H160        H  0.36565628  0.28360215  0.27036118     0.29800
H161        H  0.23797691  0.21238947  0.21386455     0.29800
H162        H  0.28181616  0.21926331  0.36373914     0.30100
Zr163      Zr  0.37884950  0.43648495  0.16597488     2.17500
O164        O  0.40772412  0.47494670  0.12211948    -0.52300
O165        O  0.40631776  0.40914419  0.15923865    -0.75500
O166        O  0.42680613  0.46577147  0.19511897    -0.82300
O167        O  0.31568254  0.39437613  0.08982446    -0.84000
O168        O  0.42410515  0.46672156  0.26534372    -0.79600
O169        O  0.36314900  0.42190988  0.09149913    -0.91300
O170        O  0.39431117  0.38094107  0.21355866    -0.77200
O171        O  0.38046522  0.41730285  0.23040405    -0.86700
O172        O  0.34268203  0.38838088  0.16385538    -0.86400
O173        O  0.37252036  0.46697230  0.22065171    -0.73200
O174        O  0.33500783  0.43989425  0.15829279    -0.85300
Zr175      Zr  0.29304391  0.40187000  0.27125891     2.26400
Zr176      Zr  0.37322002  0.44598875  0.28507395     2.06300
Zr177      Zr  0.29860191  0.39142642  0.15800151     2.10000
Zr178      Zr  0.34538311  0.36957441  0.22768219     1.78800
O179        O  0.27156484  0.40495030  0.11058005    -0.94100
O180        O  0.36074869  0.35443280  0.28838817    -0.41900
O181        O  0.30079041  0.37114791  0.22040844    -0.78500
O182        O  0.33645704  0.39760757  0.28190321    -0.97200
O183        O  0.32990039  0.44969312  0.27570323    -0.90500
O184        O  0.29115405  0.42245990  0.20882729    -0.93400
C185        C  0.41065785  0.39283968  0.18380415     1.00400
C186        C  0.33933104  0.40661645  0.07202294     1.13300
C187        C  0.43835550  0.47242417  0.23144349     1.04100
O188        O  0.40031339  0.43390795  0.33433172    -0.95500
O189        O  0.34915484  0.43546002  0.35317122    -0.91300
O190        O  0.30227700  0.40675160  0.34348240    -0.84400
C191        C  0.32388998  0.42053868  0.36659414     1.10700
O192        O  0.35115676  0.50643108  0.16299218    -0.97500
Zr193      Zr  0.32856997  0.46985578  0.21250809     1.88900
O194        O  0.27536039  0.43569045  0.29827729    -0.74100
O195        O  0.38842364  0.49474311  0.31514431    -0.53400
O196        O  0.35703978  0.51661195  0.24700306    -0.98100
O197        O  0.29569313  0.48063213  0.17265870    -0.55300
O198        O  0.29735826  0.47625317  0.26330510    -0.74700
C199        C  0.28072729  0.46169605  0.29122236     0.97700
O200        O  0.26098862  0.35955341  0.30597551    -0.63500
O201        O  0.28312825  0.34134493  0.13353279    -0.58300
O202        O  0.24530563  0.37321273  0.24351916    -0.95000
O203        O  0.24897327  0.36454174  0.17485767    -0.93400
O204        O  0.34178393  0.33124078  0.17726213    -0.93700
O205        O  0.31090584  0.32214733  0.24489946    -0.92500
C206        C  0.23464810  0.36155033  0.20802043     1.16500
H207        H  0.34543093  0.37695858  0.14116018     0.32500
H208        H  0.33581055  0.38850890  0.30723499     0.43300
H209        H  0.27308747  0.42277770  0.20514536     0.36800
H210        H  0.38779846  0.48603505  0.22037401     0.33300
H211        H  0.36836148  0.34096023  0.27736312     0.25100
H212        H  0.39931811  0.49548931  0.34013369     0.31100
H213        H  0.34527771  0.02162596  0.25068363     0.37000
H214        H  0.36060868  0.33119177  0.17710351     0.31400
H215        H  0.29783173  0.34127079  0.11421707     0.30300
H216        H  0.27554912  0.42496576  0.11976459     0.32000
H217        H  0.29960723  0.99251385  0.17730845     0.30900
H218        H  0.30289387  0.32545675  0.27134068     0.34900
H219        H  0.27325307  0.35275307  0.32037977     0.27700
H220        H  0.41364216  0.49281539  0.13997244     0.31900
H221        H  0.36982970  0.99819397  0.15193094     0.34800
H222        H  0.28537618  0.33159339  0.15760755     0.27400
H223        H  0.25216323  0.36674284  0.32815717     0.40200
H224        H  0.41101945  0.45204288  0.35093411     0.30300
H225        H  0.37756303  0.37166928  0.29868051     0.37900
H226        H  0.27667907  0.46585703  0.17904251     0.29800
H227        H  0.40273652  0.50707831  0.29598347     0.29800
H228        H  0.39433499  0.47633165  0.10229189     0.30100
C229        C  0.30677412  0.08958921  0.44048759     0.79300
N230        N  0.29390067  0.06175454  0.42508314    -0.79000
C231        C  0.28355851  0.05510238  0.38596995     0.81700
N232        N  0.28665930  0.07682946  0.36224455    -0.79000
C233        C  0.29949432  0.10471572  0.37609450     0.81800
N234        N  0.30973728  0.11136848  0.41567564    -0.80700
C235        C  0.18650155  0.10087859  0.40729638     0.79300
N236        N  0.20903864  0.12354756  0.39108435    -0.79000
C237        C  0.21356349  0.12300508  0.34930870     0.81700
N238        N  0.19602989  0.10010784  0.32536959    -0.79000
C239        C  0.17418315  0.07769335  0.34096970     0.81800
N240        N  0.16950517  0.07851734  0.38176401    -0.80700
Zr241      Zr  0.07362280  0.12881672  0.27120463     2.17500
O242        O  0.04644994  0.10507568  0.33046781    -0.52300
O243        O  0.10102155  0.10176228  0.27548500    -0.75500
O244        O  0.04000177  0.07874485  0.25338702    -0.82300
O245        O  0.12496667  0.19577048  0.33586029    -0.84000
O246        O  0.03056816  0.07454961  0.18439502    -0.79600
O247        O  0.08554185  0.15421443  0.34105524    -0.91300
O248        O  0.12070091  0.10338633  0.21310229    -0.77200
O249        O  0.08505115  0.11871584  0.20252351    -0.86700
O250        O  0.12151292  0.16235551  0.26166169    -0.86400
O251        O  0.03978456  0.13227984  0.22489264    -0.73200
O252        O  0.07530918  0.17578234  0.28035014    -0.85300
Zr253      Zr  0.10120913  0.20511380  0.15872281     2.26400
Zr254      Zr  0.05326187  0.12383470  0.15543175     2.06300
Zr255      Zr  0.12308184  0.20964730  0.26768779     2.10000
Zr256      Zr  0.13246020  0.15168618  0.19347913     1.78800
O257        O  0.11258074  0.24245558  0.31406967    -0.94100
O258        O  0.14136232  0.12903394  0.13055159    -0.41900
O259        O  0.13542564  0.19954654  0.20018446    -0.78500
O260        O  0.10128702  0.15854045  0.14708921    -0.97200
O261        O  0.05365533  0.17021693  0.16703746    -0.90500
O262        O  0.08892832  0.21485113  0.22598501    -0.93400
C263        C  0.11241192  0.09184598  0.24746191     1.00400
C264        C  0.10560072  0.17760410  0.35707590     1.13300
C265        C  0.02858961  0.06355925  0.22007844     1.04100
O266        O  0.05820893  0.08830289  0.10754524    -0.95500
O267        O  0.06035640  0.14358921  0.08395497    -0.91300
O268        O  0.08838408  0.19188626  0.08906025    -0.84400
C269        C  0.07370246  0.16865575  0.06828910     1.10700
O270        O  0.00909944  0.15548041  0.28965369    -0.97500
Zr271      Zr  0.04190945  0.17948334  0.23549394     1.88900
O272        O  0.06917952  0.22612545  0.14262214    -0.74100
O273        O  0.00475540  0.10839707  0.13224841    -0.53400
O274        O  0.49410805  0.16547817  0.21688129    -0.98100
O275        O  0.04011854  0.21551526  0.28599238    -0.55300
O276        O  0.03554560  0.21201649  0.19162530    -0.74700
C277        C  0.04667105  0.22548245  0.15948694     0.97700
O278        O  0.13750107  0.22594931  0.10725640    -0.63500
O279        O  0.17333062  0.22874779  0.28380712    -0.58300
O280        O  0.13172998  0.25524723  0.17812132    -0.95000
O281        O  0.14970020  0.25768431  0.24209207    -0.93400
O282        O  0.17107136  0.15785916  0.23930292    -0.93700
O283        O  0.17761675  0.17655759  0.15995267    -0.92500
C284        C  0.14781868  0.26913798  0.20889444     1.16500
H285        H  0.13350951  0.16026998  0.28217191     0.32500
H286        H  0.10758509  0.15659523  0.11954885     0.43300
H287        H  0.08999282  0.23400707  0.22942595     0.36800
H288        H  0.02097439  0.11808950  0.23052478     0.33300
H289        H  0.15231645  0.11881063  0.13953715     0.25100
H290        H  0.99836770  0.08796754  0.12277432     0.31100
H291        H  0.48667308  0.14466548  0.20925351     0.37000
H292        H  0.17481929  0.14092730  0.23242268     0.31400
H293        H  0.17475815  0.22462722  0.31279454     0.30300
H294        H  0.13074323  0.25482212  0.32810664     0.32000
H295        H  0.52749487  0.21699772  0.28456620     0.30900
H296        H  0.17692836  0.19383507  0.14936055     0.34900
H297        H  0.13602546  0.24347628  0.09928388     0.27700
H298        H  0.05046880  0.08822121  0.33352511     0.31900
H299        H  0.52345154  0.15976950  0.31031911     0.34800
H300        H  0.17978535  0.21593426  0.26753529     0.27400
H301        H  0.15565730  0.23308372  0.12250116     0.40200
H302        H  0.04013789  0.07940833  0.09193994     0.30300
H303        H  0.12271536  0.11352976  0.12221655     0.37900
H304        H  0.04553628  0.21070176  0.31252527     0.29800
H305        H  0.99410020  0.10775710  0.15779666     0.29800
H306        H  0.02638548  0.09696270  0.32179889     0.30100
C307        C  0.41830454  0.17077628  0.04605439     0.79300
N308        N  0.44507802  0.19096295  0.05333648    -0.79000
C309        C  0.45161718  0.21123155  0.08477979     0.81700
N310        N  0.43090456  0.21057940  0.11068241    -0.79000
C311        C  0.40388745  0.19069854  0.10474818     0.81800
N312        N  0.39742481  0.17076142  0.07195703    -0.80700
C313        C  0.46662697  0.02940759  0.75064520     0.79300
N314        N  0.49486262  0.04219928  0.74295048    -0.79000
C315        C  0.01115955  0.03028709  0.73566029     0.81700
N316        N  0.49595395  0.99719914  0.73291746    -0.79000
C317        C  0.46720169  0.48486413  0.74077097     0.81800
N318        N  0.45274486  0.50119802  0.75042793    -0.80700
Zr319      Zr  0.10667981  0.09020631  0.78053171     2.17500
O320        O  0.08075612  0.05282108  0.82743373    -0.52300
O321        O  0.07999621  0.11890244  0.78646522    -0.75500
O322        O  0.12477281  0.10757928  0.85246516    -0.82300
O323        O  0.05490679  0.04505287  0.69571192    -0.84000
O324        O  0.17192457  0.13496996  0.84786134    -0.79600
O325        O  0.05700901  0.05945386  0.76376317    -0.91300
O326        O  0.09506892  0.15084842  0.73652629    -0.77200
O327        O  0.14264496  0.13770890  0.77300132    -0.86700
O328        O  0.10037423  0.10239415  0.71270945    -0.86400
O329        O  0.15093308  0.08714429  0.78662201    -0.73200
O330        O  0.11056453  0.05464868  0.73230308    -0.85300
Zr331      Zr  0.18558481  0.11339760  0.66649784     2.26400
Zr332      Zr  0.18691304  0.13491938  0.77817609     2.06300
Zr333      Zr  0.10393116  0.06760352  0.66482563     2.10000
Zr334      Zr  0.13626166  0.14957152  0.70547137     1.78800
O335        O  0.08838987  0.01710621  0.64315140    -0.94100
O336        O  0.15486684  0.19545609  0.74513936    -0.41900
O337        O  0.14089799  0.11506147  0.65816003    -0.78500
O338        O  0.18157002  0.14941334  0.71195460    -0.97200
O339        O  0.19231351  0.09988261  0.73223046    -0.90500
O340        O  0.14854258  0.06584378  0.67141462    -0.93400
C341        C  0.07814442  0.13830748  0.76523731     1.00400
C342        C  0.04304991  0.04553498  0.73114347     1.13300
C343        C  0.14946592  0.12327271  0.86882008     1.04100
O344        O  0.20494390  0.18576595  0.79949526    -0.95500
O345        O  0.23549220  0.15846666  0.75432501    -0.91300
O346        O  0.23479475  0.14251125  0.68756517    -0.84400
C347        C  0.24771283  0.15721193  0.72029435     1.10700
O348        O  0.13552683  0.02068136  0.79338329    -0.97500
Zr349      Zr  0.15546822  0.05288935  0.73770162     1.88900
O350        O  0.20422716  0.07937188  0.64451021    -0.74100
O351        O  0.21647756  0.12651173  0.82780137    -0.53400
O352        O  0.19231437  0.05185371  0.78121945    -0.98100
O353        O  0.12967277  0.00292798  0.71229063    -0.55300
O354        O  0.18674757  0.04364179  0.68896918    -0.74700
C355        C  0.20125968  0.05524287  0.65734377     0.97700
O356        O  0.21076620  0.14850146  0.61602821    -0.63500
O357        O  0.07086063  0.07199142  0.61708656    -0.58300
O358        O  0.17132235  0.10453287  0.59643234    -0.95000
O359        O  0.12387495  0.07610410  0.59318248    -0.93400
O360        O  0.10932253  0.15548119  0.64947304    -0.93700
O361        O  0.16077165  0.18625995  0.65700298    -0.92500
C362        C  0.14836678  0.09024763  0.57647579     1.16500
H363        H  0.08189896  0.10162504  0.70864746     0.32500
H364        H  0.19640057  0.16818841  0.70712305     0.43300
H365        H  0.14961592  0.05270908  0.64983228     0.36800
H366        H  0.15263247  0.08128987  0.81371920     0.33300
H367        H  0.14768911  0.19103262  0.77340406     0.25100
H368        H  0.22549054  0.11591621  0.81171165     0.31100
H369        H  0.19109925  0.03225719  0.77609641     0.37000
H370        H  0.10207008  0.13689034  0.63312162     0.31400
H371        H  0.05905725  0.05204536  0.60636179     0.30300
H372        H  0.10177760  0.01700206  0.62149565     0.32000
H373        H  0.13959571  0.49188201  0.72269354     0.30900
H374        H  0.17078236  0.17781887  0.63866756     0.34900
H375        H  0.21942204  0.16732350  0.63174637     0.27700
H376        H  0.07353637  0.06220404  0.84894997     0.31900
H377        H  0.11484313  0.01340205  0.79001064     0.34800
H378        H  0.05802640  0.07727731  0.63451766     0.27400
H379        H  0.22683242  0.14436277  0.60726443     0.40200
H380        H  0.18958574  0.18746733  0.81570273     0.30300
H381        H  0.17531419  0.20091369  0.74738167     0.37900
H382        H  0.12971582  0.00354566  0.68192696     0.29800
H383        H  0.23201924  0.14569796  0.83471036     0.29800
H384        H  0.09533046  0.04904683  0.84142435     0.30100
C385        C  0.09328383  0.21491246  0.90829359     0.79300
N386        N  0.11751356  0.23358908  0.88991399    -0.79000
C387        C  0.11621292  0.23932908  0.84940437     0.81700
N388        N  0.09127910  0.22630483  0.82854552    -0.79000
C389        C  0.06740418  0.20818000  0.84680897     0.81800
N390        N  0.06885844  0.20291610  0.88655333    -0.80700
C391        C  0.08582303  0.22166015  0.51431423     0.79300
N392        N  0.05766001  0.20856979  0.52012664    -0.79000
C393        C  0.04567060  0.21686735  0.55197802     0.81700
N394        N  0.06202368  0.23872319  0.57866067    -0.79000
C395        C  0.09020319  0.25253793  0.57343570     0.81800
N396        N  0.10232304  0.24381510  0.54119826    -0.80700
Zr397      Zr  0.39375328  0.13885747  0.68894956     2.17500
O398        O  0.41302534  0.19104997  0.69053421    -0.52300
O399        O  0.36878452  0.12445780  0.62322607    -0.75500
O400        O  0.42995213  0.15515532  0.63788829    -0.82300
O401        O  0.32988082  0.13238569  0.74822640    -0.84000
O402        O  0.45836960  0.13394412  0.65277282    -0.79600
O403        O  0.35952547  0.15802830  0.69855601    -0.91300
O404        O  0.35037403  0.07582205  0.62100434    -0.77200
O405        O  0.40394942  0.09931793  0.66860977    -0.86700
O406        O  0.35226757  0.09671674  0.70208984    -0.86400
O407        O  0.43463654  0.14505609  0.72809947    -0.73200
O408        O  0.38608001  0.14171143  0.76139749    -0.85300
Zr409      Zr  0.39792079  0.06656626  0.79846151     2.26400
Zr410      Zr  0.44298136  0.10379596  0.71036868     2.06300
Zr411      Zr  0.34558810  0.09835110  0.77471016     2.10000
Zr412      Zr  0.36302842  0.05787263  0.68303513     1.78800
O413        O  0.33386364  0.12036092  0.83597715    -0.94100
O414        O  0.33114470  0.01782000  0.63831226    -0.41900
O415        O  0.35680087  0.05875169  0.75641845    -0.78500
O416        O  0.40217111  0.06083724  0.72446279    -0.97200
O417        O  0.43874285  0.10879656  0.78366630    -0.90500
O418        O  0.38579548  0.10572502  0.81469849    -0.93400
C419        C  0.35414273  0.09963098  0.60544851     1.00400
C420        C  0.33808557  0.15187368  0.72185126     1.13300
C421        C  0.45160773  0.15028944  0.63157808     1.04100
O422        O  0.46272968  0.08521543  0.65421653    -0.95500
O423        O  0.45916852  0.06838284  0.72873308    -0.91300
O424        O  0.43062765  0.04347054  0.77948741    -0.84400
C425        C  0.45101491  0.04806754  0.75368763     1.10700
O426        O  0.44487389  0.19893135  0.78971100    -0.97500
Zr427      Zr  0.42678979  0.14787486  0.80039147     1.88900
O428        O  0.40804502  0.08819108  0.87125716    -0.74100
O429        O  0.49064202  0.13479573  0.73389373    -0.53400
O430        O  0.47770094  0.16763886  0.80966605    -0.98100
O431        O  0.41124333  0.17679241  0.84698900    -0.55300
O432        O  0.43048991  0.13685916  0.87028434    -0.74700
C433        C  0.41894476  0.11376239  0.88940158     0.97700
O434        O  0.39541431  0.02785019  0.84064357    -0.63500
O435        O  0.29548313  0.07127355  0.75868228    -0.58300
O436        O  0.35176397  0.03615216  0.82225268    -0.95000
O437        O  0.32519722  0.06131113  0.82422116    -0.93400
O438        O  0.31956577  0.02718972  0.71609614    -0.93700
O439        O  0.38575758  0.03000496  0.64957075    -0.92500
C440        C  0.33030467  0.04021651  0.83375860     1.16500
H441        H  0.33590155  0.09561568  0.68752049     0.32500
H442        H  0.40502137  0.04383774  0.71770512     0.43300
H443        H  0.37922108  0.10661196  0.84231227     0.36800
H444        H  0.45076101  0.16242255  0.72062196     0.33300
H445        H  0.31381490  0.02070192  0.63570928     0.25100
H446        H  0.50242908  0.13006876  0.71359346     0.31100
H447        H  0.48172357  0.18008243  0.83534183     0.37000
H448        H  0.30548432  0.03368783  0.70693712     0.31400
H449        H  0.28611614  0.08053734  0.77681509     0.30300
H450        H  0.32140359  0.12871395  0.82625565     0.32000
H451        H  0.42576871  0.18485607  0.86913494     0.30900
H452        H  0.39374593  0.03990126  0.62406654     0.34900
H453        H  0.39135267  0.01077621  0.82167401     0.27700
H454        H  0.40802538  0.19551155  0.66346286     0.31900
H455        H  0.45993607  0.20277876  0.76912758     0.34800
H456        H  0.29299888  0.07633489  0.73060538     0.27400
H457        H  0.41467227  0.03353360  0.85171156     0.40200
H458        H  0.44652263  0.06798646  0.64244276     0.30300
H459        H  0.33947938  0.02103776  0.61051662     0.37900
H460        H  0.39435105  0.16269190  0.86050624     0.29800
H461        H  0.49346032  0.15440616  0.72780819     0.29800
H462        H  0.43372359  0.19773881  0.69003376     0.30100
C463        C  0.05902598  0.30120272  0.91778500     0.79300
N464        N  0.03164599  0.28722675  0.90469110    -0.79000
C465        C  0.02471455  0.27646086  0.86516673     0.81700
N466        N  0.04571556  0.28028338  0.83803139    -0.79000
C467        C  0.07306266  0.29428129  0.84977296     0.81800
N468        N  0.07969286  0.30486966  0.88970034    -0.80700
Zr469      Zr  0.17281717  0.32471106  0.63667744     2.17500
O470        O  0.18831102  0.29956674  0.58341887    -0.52300
O471        O  0.16372191  0.35878401  0.59509472    -0.75500
O472        O  0.13322711  0.28994692  0.59674877    -0.82300
O473        O  0.24756092  0.37010270  0.65951323    -0.84000
O474        O  0.09620318  0.27541125  0.64092657    -0.79600
O475        O  0.21765588  0.35272623  0.60419370    -0.91300
O476        O  0.16632713  0.39364444  0.64304931    -0.77200
O477        O  0.13870143  0.33762357  0.67007039    -0.86700
O478        O  0.19879093  0.36619983  0.68105518    -0.86400
O479        O  0.14505021  0.28468907  0.67817234    -0.73200
O480        O  0.19919544  0.31024006  0.68356773    -0.85300
Zr481      Zr  0.16603270  0.32813938  0.80144761     2.26400
Zr482      Zr  0.11124366  0.29859750  0.71141678     2.06300
Zr483      Zr  0.22610303  0.35221839  0.72574845     2.10000
Zr484      Zr  0.16533580  0.37901104  0.71357363     1.78800
O485        O  0.24915549  0.32017005  0.72366146    -0.94100
O486        O  0.12120891  0.38374220  0.71014379    -0.41900
O487        O  0.19416039  0.36800289  0.76057680    -0.78500
O488        O  0.13765669  0.34060714  0.75533948    -0.97200
O489        O  0.13814714  0.28666493  0.75877303    -0.90500
O490        O  0.19896268  0.31388659  0.76813141    -0.93400
C491        C  0.16456243  0.38366500  0.60540665     1.00400
C492        C  0.24170741  0.36890738  0.62075244     1.13300
C493        C  0.10744841  0.27441646  0.60540616     1.04100
O494        O  0.08057761  0.32141830  0.69695394    -0.95500
O495        O  0.08815467  0.29338492  0.77989670    -0.91300
O496        O  0.12057663  0.31257802  0.83225077    -0.84400
C497        C  0.09524843  0.30018298  0.81851462     1.10700
O498        O  0.19299378  0.24836143  0.68291680    -0.97500
Zr499      Zr  0.17065622  0.27199563  0.72722360     1.88900
O500        O  0.15465440  0.28510783  0.83984413    -0.74100
O501        O  0.06993641  0.25293671  0.71571687    -0.53400
O502        O  0.13640895  0.22614251  0.69688995    -0.98100
O503        O  0.20046970  0.25629698  0.76597002    -0.55300
O504        O  0.14211395  0.25082501  0.78784795    -0.74700
C505        C  0.14039532  0.25915742  0.82559101     0.97700
O506        O  0.16536053  0.36041411  0.85903490    -0.63500
O507        O  0.27413507  0.39023369  0.72700066    -0.58300
O508        O  0.20933743  0.34862659  0.84294525    -0.95000
O509        O  0.24340969  0.37091597  0.79646403    -0.93400
O510        O  0.19959315  0.42891502  0.70947932    -0.93700
O511        O  0.16551137  0.41057347  0.77234180    -0.92500
C512        C  0.23461452  0.36583496  0.83368048     1.16500
H513        H  0.20997859  0.38296352  0.66620594     0.32500
H514        H  0.12496915  0.34635910  0.77091919     0.43300
H515        H  0.21055674  0.31038897  0.78774265     0.36800
H516        H  0.13604722  0.26728496  0.66100745     0.33300
H517        H  0.12656834  0.40447822  0.71603993     0.25100
H518        H  0.05437688  0.25591002  0.70326869     0.31100
H519        H  0.11877988  0.22277564  0.71171068     0.37000
H520        H  0.21821155  0.42843310  0.71036741     0.31400
H521        H  0.27436118  0.40531714  0.74740862     0.30300
H522        H  0.24962441  0.31458216  0.69411440     0.32000
H523        H  0.19613120  0.25847163  0.79533548     0.30900
H524        H  0.15560942  0.39747918  0.79427781     0.34900
H525        H  0.18188227  0.37892924  0.85507849     0.27700
H526        H  0.18004853  0.30153552  0.55726513     0.31900
H527        H  0.19389044  0.25625046  0.65562597     0.34800
H528        H  0.28577843  0.38194709  0.73966761     0.27400
H529        H  0.14901332  0.36456341  0.85375891     0.40200
H530        H  0.07068392  0.31153965  0.67092922     0.30300
H531        H  0.11583918  0.38036863  0.68057624     0.37900
H532        H  0.22005806  0.27099159  0.76276320     0.29800
H533        H  0.07343833  0.23965678  0.69578536     0.29800
H534        H  0.17817362  0.27893642  0.58890351     0.30100
Zr535      Zr  0.41402939  0.38961007  0.67372677     2.17500
O536        O  0.45445386  0.41437500  0.63008592    -0.52300
O537        O  0.38646135  0.41609336  0.66565165    -0.75500
O538        O  0.40224174  0.37206839  0.59905657    -0.82300
O539        O  0.44835117  0.43871222  0.77127145    -0.84000
O540        O  0.37315720  0.32424630  0.59818114    -0.79600
O541        O  0.44284489  0.43965582  0.70178183    -0.91300
O542        O  0.35272920  0.40317390  0.71455061    -0.77200
O543        O  0.36634118  0.35363225  0.67558242    -0.86700
O544        O  0.39652390  0.39398410  0.74102299    -0.86400
O545        O  0.41614022  0.34423813  0.66311950    -0.73200
O546        O  0.44409272  0.38408195  0.72441534    -0.85300
Zr547      Zr  0.38076284  0.30593940  0.77867604     2.26400
Zr548      Zr  0.36833359  0.30812018  0.66638452     2.06300
Zr549      Zr  0.42536756  0.38779010  0.79160866     2.10000
Zr550      Zr  0.34922074  0.35895676  0.74222006     1.78800
O551        O  0.47342699  0.40398261  0.81735037    -0.94100
O552        O  0.30730976  0.34314833  0.69884468    -0.41900
O553        O  0.37782754  0.35101861  0.79210317    -0.78500
O554        O  0.34957607  0.31268431  0.73205705    -0.97200
O555        O  0.39896122  0.30119802  0.71332437    -0.90500
O556        O  0.42797069  0.34287991  0.77965496    -0.93400
C557        C  0.36699953  0.41947564  0.68610126     1.00400
C558        C  0.45193990  0.45232608  0.73775669     1.13300
C559        C  0.38713488  0.34728897  0.57987160     1.04100
O560        O  0.32190359  0.29054542  0.63405054    -0.95500
O561        O  0.33925162  0.25891440  0.68485248    -0.91300
O562        O  0.35170418  0.25727331  0.75083573    -0.84400
C563        C  0.33806080  0.24546051  0.71728143     1.10700
O564        O  0.48261606  0.35905869  0.66265417    -0.97500
Zr565      Zr  0.44573579  0.33858747  0.71334139     1.88900
O566        O  0.41273455  0.28508921  0.79655845    -0.74100
O567        O  0.38334884  0.27754495  0.62229475    -0.53400
O568        O  0.45225479  0.30270370  0.66806559    -0.98100
O569        O  0.49051609  0.36584238  0.74972866    -0.55300
O570        O  0.45031840  0.30370708  0.75436625    -0.74700
C571        C  0.43668607  0.28748267  0.78295262     0.97700
O572        O  0.34365146  0.27722292  0.82505115    -0.63500
O573        O  0.41378957  0.41891227  0.83986148    -0.58300
O574        O  0.38504173  0.31794100  0.85041606    -0.95000
O575        O  0.41477614  0.36558486  0.86009074    -0.93400
O576        O  0.34089331  0.38624360  0.80034192    -0.93700
O577        O  0.30606857  0.33034456  0.77836096    -0.92500
C578        C  0.39912634  0.34036576  0.87328333     1.16500
H579        H  0.39720561  0.41279668  0.74689084     0.32500
H580        H  0.33061315  0.29782637  0.73449168     0.43300
H581        H  0.43932801  0.34088454  0.80123568     0.36800
H582        H  0.42385138  0.34288610  0.63640974     0.33300
H583        H  0.31342256  0.35476481  0.67435599     0.25100
H584        H  0.36690619  0.26623006  0.60399250     0.31100
H585        H  0.43501105  0.28466741  0.67129829     0.37000
H586        H  0.34374333  0.37756259  0.82519336     0.31400
H587        H  0.39389235  0.40728708  0.84717471     0.30300
H588        H  0.47147314  0.40189114  0.84744131     0.32000
H589        H  0.49682952  0.38589559  0.74185323     0.30900
H590        H  0.31251584  0.32592273  0.80438722     0.34900
H591        H  0.32569098  0.27112952  0.80959682     0.27700
H592        H  0.45504130  0.39936257  0.61023500     0.31900
H593        H  0.47777121  0.37292224  0.64878959     0.34800
H594        H  0.42468418  0.42061112  0.86527693     0.27400
H595        H  0.34592235  0.25935441  0.82810672     0.40200
H596        H  0.30827182  0.28240721  0.65640061     0.30300
H597        H  0.30369054  0.32346770  0.68847537     0.37900
H598        H  0.50395530  0.35935888  0.73626502     0.29800
H599        H  0.39778348  0.29061230  0.60393104     0.29800
H600        H  0.47105990  0.41932732  0.64826973     0.30100
C601        C  0.28796579  0.41341921  0.53774276     0.79300
N602        N  0.26681914  0.39045820  0.55542297    -0.79000
C603        C  0.26319971  0.39156939  0.59720624     0.81700
N604        N  0.28015843  0.41516152  0.62008411    -0.79000
C605        C  0.30075450  0.43784162  0.60341535     0.81800
N606        N  0.30465549  0.43662911  0.56238100    -0.80700
C607        C  0.28798355  0.40179599  0.91947562     0.79300
N608        N  0.27036626  0.38024363  0.89219870    -0.79000
C609        C  0.25271627  0.38574902  0.86686118     0.81700
N610        N  0.25299062  0.41203829  0.86905576    -0.79000
C611        C  0.27033472  0.43331647  0.89535322     0.81800
N612        N  0.28781996  0.42796324  0.91980443    -0.80700
C613        C  0.14936202  0.42157378  0.51887969     0.79300
N614        N  0.16806187  0.44878670  0.53078534    -0.79000
C615        C  0.18633256  0.45439025  0.56260084     0.81700
N616        N  0.18515400  0.43217104  0.58381799    -0.79000
C617        C  0.16663039  0.40461689  0.57394573     0.81800
N618        N  0.14830229  0.39905158  0.54106653    -0.80700
C619        C  0.32213739  0.16886101  0.71884029     0.79300
N620        N  0.33605116  0.19771348  0.71652172    -0.79000
C621        C  0.32167869  0.21405494  0.71570900     0.81700
N622        N  0.29287275  0.20127938  0.71728205    -0.79000
C623        C  0.27878410  0.17209555  0.71922535     0.81800
N624        N  0.29358333  0.15613300  0.72037388    -0.80700
C625        C  0.35899582  0.44226989  0.67424478    -0.07100
C626        C  0.33653008  0.44521959  0.69477221    -0.18200
C627        C  0.31953032  0.45473872  0.67364668     0.10100
C628        C  0.32364809  0.45777671  0.63097606    -0.07000
C629        C  0.35087500  0.46505026  0.61620351    -0.18200
C630        C  0.36894223  0.45695828  0.63762912     0.10200
S631        S  0.28872206  0.45495414  0.69851800    -0.33200
S632        S  0.40311486  0.46383843  0.61642933    -0.33200
H633        H  0.40072612  0.47737080  0.58134695     0.28200
H634        H  0.28009976  0.46543760  0.66497565     0.28200
H635        H  0.33031603  0.43723941  0.72512582     0.18800
H636        H  0.35588175  0.47179633  0.58505466     0.18800
C637        C  0.45163905  0.27319231  0.80333341    -0.07100
C638        C  0.45278220  0.27455971  0.84650394    -0.18200
C639        C  0.97327757  0.26802342  0.87264000     0.10100
C640        C  0.99555715  0.26694072  0.84871660    -0.07000
C641        C  0.49431668  0.26616620  0.80125492    -0.18200
C642        C  0.47093354  0.26568291  0.78099674     0.10200
S643        S  0.97173755  0.26418878  0.92743562    -0.33200
S644        S  0.46795098  0.25750191  0.72610410    -0.33200
H645        H  0.43862805  0.24877758  0.72425279     0.28200
H646        H  0.94234249  0.25470194  0.92989282     0.28200
H647        H  0.43717216  0.27869402  0.86424371     0.18800
H648        H  0.51026613  0.26311720  0.78286026     0.18800
C649        C  0.30972073  0.01757240  0.85747250    -0.07100
C650        C  0.31769460  0.01358778  0.89669790    -0.18200
C651        C  0.29578309  0.48670569  0.91287635     0.10100
C652        C  0.27525175  0.46327153  0.88939416    -0.07000
C653        C  0.26512630  0.46852035  0.85246157    -0.18200
C654        C  0.27944628  0.49459178  0.83414418     0.10200
S655        S  0.30509851  0.48344576  0.96499083    -0.33200
S656        S  0.26973835  0.49842253  0.78263150    -0.33200
H657        H  0.25966278  0.97160720  0.77519679     0.28200
H658        H  0.33226745  0.50632629  0.96498115     0.28200
H659        H  0.33512292  0.03112699  0.91272095     0.18800
H660        H  0.24833875  0.45114429  0.83521913     0.18800
C661        C  0.47142768  0.16489426  0.59910838    -0.07100
C662        C  0.48769217  0.15120395  0.58305840    -0.18200
C663        C  0.00303987  0.16978510  0.55885731     0.10100
C664        C  0.01585099  0.20020415  0.56141995    -0.07000
C665        C  0.00192551  0.21507207  0.58148383    -0.18200
C666        C  0.97790231  0.20057809  0.60455145     0.10200
S667        S  0.01789025  0.14874840  0.52990637    -0.33200
S668        S  0.96255332  0.22099786  0.63360443    -0.33200
H669        H  0.47614834  0.23967068  0.59537655     0.28200
H670        H  0.99829868  0.12140856  0.54095155     0.28200
H671        H  0.48134470  0.12874543  0.58825642     0.18800
H672        H  0.01133781  0.23833042  0.58196769     0.18800
C673        C  0.20199002  0.48429574  0.58073759    -0.07100
C674        C  0.21100311  0.48793150  0.62211242    -0.18200
C675        C  0.21898003  0.01715951  0.64868258     0.10100
C676        C  0.21201317  0.03767088  0.63141264    -0.07000
C677        C  0.20866679  0.03648295  0.58842121    -0.18200
C678        C  0.20227961  0.50841543  0.56183475     0.10200
S679        S  0.23120913  0.02207338  0.70145773    -0.33200
S680        S  0.20012211  0.50990499  0.50679106    -0.33200
H681        H  0.21222461  0.49070348  0.49741100     0.28200
H682        H  0.23714801  0.99796446  0.70085760     0.28200
H683        H  0.21325059  0.47065510  0.63654267     0.18800
H684        H  0.20545786  0.05327580  0.57405223     0.18800
C685        C  0.04341609  0.18746011  0.82106641    -0.07100
C686        C  0.04693695  0.19043436  0.77856004    -0.18200
C687        C  0.05436249  0.17100338  0.75547040     0.10100
C688        C  0.05646047  0.14849920  0.77609962    -0.07000
C689        C  0.04145343  0.14024171  0.81280989    -0.18200
C690        C  0.03228136  0.15902845  0.83361663     0.10200
S691        S  0.06186141  0.17591435  0.70144555    -0.33200
S692        S  0.01407468  0.14900843  0.88146980    -0.33200
H693        H  0.01035540  0.17436990  0.88793973     0.28200
H694        H  0.04446763  0.18992013  0.69596827     0.28200
H695        H  0.05028730  0.21054604  0.76588905     0.18800
H696        H  0.03917191  0.12092427  0.82704399     0.18800
C697        C  0.41446192  0.11853508  0.93420618    -0.07100
C698        C  0.39170314  0.12524671  0.94450765    -0.18200
C699        C  0.39080734  0.13977041  0.98228514     0.10100
C700        C  0.41366205  0.14899868  0.01053491    -0.07000
C701        C  0.43546764  0.14053698  0.00122746    -0.18200
C702        C  0.43584522  0.12520016  0.96410852     0.10200
S703        S  0.36163165  0.14884044  0.99045233    -0.33200
S704        S  0.46467982  0.11553579  0.95629927    -0.33200
H705        H  0.45243917  0.09524770  0.92322590     0.28200
H706        H  0.35460161  0.13572075  0.02830164     0.28200
H707        H  0.37526656  0.12079273  0.92171538     0.18800
H708        H  0.45303114  0.14676400  0.02260903     0.18800
C709        C  0.10576251  0.18673719  0.40176150    -0.07100
C710        C  0.12124457  0.21630593  0.41369564    -0.18200
C711        C  0.11696790  0.22824287  0.45149286     0.10100
C712        C  0.09711676  0.21038580  0.47897801    -0.07000
C713        C  0.08438934  0.18046743  0.46935035    -0.18200
C714        C  0.08868804  0.16848649  0.43158159     0.10200
S715        S  0.13565707  0.26662039  0.46101176    -0.33200
S716        S  0.07217514  0.12992795  0.42384953    -0.33200
H717        H  0.09476220  0.12867291  0.40138547     0.28200
H718        H  0.11139634  0.27039776  0.47176677     0.28200
H719        H  0.13543096  0.23094071  0.39231316     0.18800
H720        H  0.07043543  0.16621282  0.49122826     0.18800
C721        C  0.09152655  0.20547423  0.95096063    -0.07100
C722        C  0.10079466  0.18450111  0.95971266    -0.18200
C723        C  0.09251794  0.16916651  0.99606759     0.10100
C724        C  0.07358654  0.17373240  0.02358907    -0.07000
C725        C  0.06351606  0.19383715  0.01352099    -0.18200
C726        C  0.07253081  0.20987487  0.97841763     0.10200
S727        S  0.10661950  0.14419511  0.00766234    -0.33200
S728        S  0.05887386  0.23578732  0.96968900    -0.33200
H729        H  0.08151247  0.25398874  0.94617391     0.28200
H730        H  0.12976385  0.15539832  0.98116184     0.28200
H731        H  0.11388946  0.17955160  0.93757610     0.18800
H732        H  0.04973751  0.19835957  0.03475856     0.18800
C733        C  0.02995393  0.23789927  0.13882678    -0.07100
C734        C  0.52979013  0.23528479  0.09050881    -0.18200
C735        C  0.50417249  0.23003856  0.07129629     0.10100
C736        C  0.48160100  0.22970343  0.09600266    -0.07000
C737        C  0.48769175  0.24196615  0.13645533    -0.18200
C738        C  0.51310428  0.24697773  0.15550585     0.10200
S739        S  0.50031129  0.22172277  0.01629210    -0.33200
S740        S  0.01337447  0.25435746  0.21562079    -0.33200
H741        H  0.04263973  0.26295534  0.21736966     0.28200
H742        H  0.52931445  0.23225986  0.00805129     0.28200
H743        H  0.54560100  0.23154375  0.07289483     0.18800
H744        H  0.47148243  0.24427444  0.15515109     0.18800
C745        C  0.17777540  0.09967260  0.45150544    -0.07100
C746        C  0.16639821  0.07249047  0.46868354    -0.18200
C747        C  0.15381632  0.06805481  0.50764026     0.10100
C748        C  0.15240002  0.09121696  0.53111310    -0.07000
C749        C  0.16409025  0.11851331  0.51433036    -0.18200
C750        C  0.17611954  0.12286623  0.47483530     0.10200
S751        S  0.14203197  0.03283894  0.52716524    -0.33200
S752        S  0.18830533  0.15828390  0.45590734    -0.33200
H753        H  0.17723466  0.14864197  0.41587110     0.28200
H754        H  0.11824064  0.03318249  0.54693482     0.28200
H755        H  0.16719203  0.05426776  0.45137993     0.18800
H756        H  0.16437489  0.13685151  0.53268724     0.18800
C757        C  0.15224512  0.05733918  0.31204308    -0.07100
C758        C  0.15941618  0.05931395  0.27014681    -0.18200
C759        C  0.14278499  0.06518068  0.24246058     0.10100
C760        C  0.11850228  0.06756366  0.25770861    -0.07000
C761        C  0.10666033  0.05403497  0.29407731    -0.18200
C762        C  0.12353369  0.04856918  0.32175780     0.10200
S763        S  0.15581366  0.07340491  0.19094715    -0.33200
S764        S  0.10886734  0.03575477  0.37102588    -0.33200
H765        H  0.12977177  0.02698688  0.38125736     0.28200
H766        H  0.12945874  0.06680552  0.17281448     0.28200
H767        H  0.18037319  0.06233836  0.26088524     0.18800
H768        H  0.08624457  0.05230932  0.30407724     0.18800
C769        C  0.31855230  0.09505083  0.48345097    -0.07100
C770        C  0.30259218  0.07634125  0.51351916    -0.18200
C771        C  0.31334612  0.07775423  0.55341754     0.10100
C772        C  0.34094717  0.09841293  0.56426866    -0.07000
C773        C  0.35652629  0.11794804  0.53474701    -0.18200
C774        C  0.34593431  0.11614879  0.49453669     0.10200
S775        S  0.29076314  0.05401654  0.59069085    -0.33200
S776        S  0.36927656  0.13977755  0.45797620    -0.33200
H777        H  0.36274185  0.11824401  0.42600478     0.28200
H778        H  0.27209333  0.03342223  0.56189226     0.28200
H779        H  0.28144199  0.06037764  0.50564170     0.18800
H780        H  0.37773574  0.13388388  0.54240088     0.18800
C781        C  0.29583168  0.41376706  0.49303636    -0.07100
C782        C  0.31536200  0.44035253  0.47851058    -0.18200
C783        C  0.32643134  0.44283666  0.43878900     0.10100
C784        C  0.31782768  0.41841992  0.41146475    -0.07000
C785        C  0.29822885  0.39178813  0.42544050    -0.18200
C786        C  0.28710750  0.38917814  0.46541244     0.10200
S787        S  0.34968897  0.47820787  0.42365765    -0.33200
S788        S  0.26190943  0.35398946  0.47858426    -0.33200
H789        H  0.24085435  0.36324372  0.48840750     0.28200
H790        H  0.37167917  0.47043047  0.41350031     0.28200
H791        H  0.32231595  0.45984754  0.49823284     0.18800
H792        H  0.29082533  0.37284215  0.40446222     0.18800
C793        C  0.30750995  0.39870858  0.95021436    -0.07100
C794        C  0.33180694  0.42377276  0.96310825    -0.18200
C795        C  0.34611588  0.42593903  0.00034729     0.10100
C796        C  0.33644018  0.40251694  0.02586490    -0.07000
C797        C  0.31521189  0.37606579  0.00951039    -0.18200
C798        C  0.30036170  0.37408569  0.97281819     0.15000
S799        S  0.37412806  0.46021762  0.01599548    -0.33200
S800        S  0.27017130  0.34078624  0.95986588    -0.33200
H801        H  0.25126917  0.35355245  0.96174949     0.28200
H802        H  0.39130590  0.44816398  0.03120425     0.28200
H803        H  0.33849822  0.44279351  0.94560143     0.18800
H804        H  0.30765464  0.35752467  0.02814653     0.18800
C805        C  0.26938333  0.47736272  0.31933030    -0.07100
C806        C  0.27397759  0.97843010  0.35983813    -0.18200
C807        C  0.27435695  0.00186220  0.38476832     0.10100
C808        C  0.27357375  0.02553735  0.36573197    -0.07000
C809        C  0.26653241  0.02211358  0.32344433    -0.18200
C810        C  0.25878031  0.49578429  0.30426850     0.10200
S811        S  0.27688289  0.00130282  0.44003818    -0.33200
S812        S  0.24648421  0.49237438  0.25186423    -0.33200
H813        H  0.23848875  0.46261788  0.24661826     0.28200
H814        H  0.27043775  0.97192201  0.44100597     0.28200
H815        H  0.27764608  0.96178209  0.37376079     0.18800
H816        H  0.26342917  0.03869812  0.30835976     0.18800
C817        C  0.39649657  0.31586610  0.45865231    -0.07100
C818        C  0.36988184  0.30495522  0.47702461    -0.18200
C819        C  0.36478359  0.31848072  0.51306272     0.10100
C820        C  0.38721500  0.34238847  0.53369220    -0.07000
C821        C  0.41251034  0.35559976  0.51231821    -0.18200
C822        C  0.41700013  0.34327216  0.47448472     0.10200
S823        S  0.32923357  0.30349571  0.53223630    -0.33200
S824        S  0.44873017  0.36343756  0.44638706    -0.33200
H825        H  0.46213206  0.38535464  0.47713894     0.28200
H826        H  0.33222545  0.32852030  0.55552532     0.28200
H827        H  0.35319311  0.28516128  0.46428567     0.18800
H828        H  0.42941531  0.37461405  0.52645660     0.18800
C829        C  0.17888728  0.12729568  0.99278013    -0.07100
C830        C  0.15144613  0.10665649  0.98113921    -0.18200
C831        C  0.13920322  0.10643717  0.94265821     0.10100
C832        C  0.15468452  0.12741252  0.91469156    -0.07000
C833        C  0.18032645  0.15024602  0.92907344    -0.18200
C834        C  0.19277555  0.15002207  0.96686723     0.10200
S835        S  0.10488541  0.07814731  0.92913250    -0.33200
S836        S  0.22809688  0.17704039  0.97727765    -0.33200
H837        H  0.23903639  0.15680368  0.98186598     0.28200
H838        H  0.09820913  0.06704929  0.96835198     0.28200
H839        H  0.14024450  0.08944463  0.00129585     0.18800
H840        H  0.19237198  0.16715450  0.90885635     0.18800
C841        C  0.07082078  0.34239444  0.04234509    -0.07100
C842        C  0.09393631  0.34984722  0.01547944    -0.18200
C843        C  0.09165026  0.33589129  0.97611026     0.10100
C844        C  0.06523514  0.31419084  0.96158418    -0.07000
C845        C  0.04269791  0.30564203  0.98944836    -0.18200
C846        C  0.04497892  0.31909382  0.02903077     0.10200
S847        S  0.12340473  0.34717326  0.94643808    -0.33200
S848        S  0.01447044  0.30506482  0.06189874    -0.33200
H849        H  0.99469679  0.28737019  0.03181203     0.28200
H850        H  0.12126018  0.31907919  0.94027403     0.28200
H851        H  0.11415353  0.36694851  0.02504010     0.18800
H852        H  0.02281173  0.28807423  0.98015282     0.18800
C853        C  0.13005532  0.41876337  0.48306265    -0.07100
C854        C  0.12087344  0.44067448  0.47978572    -0.18200
C855        C  0.11029707  0.44536150  0.44259762     0.10100
C856        C  0.10845108  0.42767551  0.40683359    -0.07000
C857        C  0.11574041  0.40458081  0.41086924    -0.18200
C858        C  0.12608679  0.39978462  0.44813914     0.10200
S859        S  0.10293468  0.47634911  0.44233118    -0.33200
S860        S  0.13692429  0.37116243  0.44768810    -0.33200
H861        H  0.12271101  0.36017362  0.48417465     0.28200
H862        H  0.08504421  0.46751867  0.40770191     0.28200
H863        H  0.12367610  0.45564700  0.50600696     0.18800
H864        H  0.11451871  0.39072191  0.38395779     0.18800
C865        C  0.52138794  0.33297978  0.35183643    -0.07100
C866        C  0.50608410  0.30485155  0.33529008    -0.18200
C867        C  0.48053685  0.28674247  0.35280319     0.10100
C868        C  0.47025733  0.29772991  0.38689652    -0.07000
C869        C  0.48888852  0.32336388  0.40804254    -0.18200
C870        C  0.51422610  0.34124895  0.39049349     0.10200
S871        S  0.46114460  0.25074082  0.32983505    -0.33200
S872        S  0.02918660  0.37947966  0.41582808    -0.33200
H873        H  0.05518009  0.38318633  0.39906301     0.28200
H874        H  0.48084786  0.25195129  0.29937475     0.28200
H875        H  0.51268448  0.29814057  0.30649905     0.18800
H876        H  0.48266127  0.33099930  0.43634639     0.18800
C877        C  0.16275051  0.99757001  0.09081136    -0.07100
C878        C  0.18927622  0.01550722  0.10775491    -0.18200
C879        C  0.20408277  0.04351366  0.09533734     0.10100
C880        C  0.19178019  0.05378914  0.06542027    -0.07000
C881        C  0.16731474  0.03396794  0.04419066    -0.18200
C882        C  0.15258036  0.00609403  0.05684789     0.10200
S883        S  0.23733321  0.06507592  0.12114216    -0.33200
S884        S  0.10575687  0.48358465  0.03556761    -0.33200
H885        H  0.10487612  0.45663673  0.04298567     0.28200
H886        H  0.25059146  0.07892196  0.08556547     0.28200
H887        H  0.19727919  0.00864656  0.13349860     0.18800
H888        H  0.15804885  0.04073884  0.01990053     0.18800
C889        C  0.38181914  0.30693707  0.99295082    -0.07100
C890        C  0.36797032  0.32294983  0.97960228    -0.18200
C891        C  0.37467102  0.33631268  0.94185900     0.10100
C892        C  0.39666089  0.33478590  0.91755228    -0.07000
C893        C  0.41033144  0.31862479  0.93110691    -0.18200
C894        C  0.40291151  0.30451012  0.96790724     0.10200
S895        S  0.35364033  0.35407575  0.92630568    -0.33200
S896        S  0.42123386  0.28367820  0.98198964    -0.33200
H897        H  0.39902818  0.26417331  0.00490349     0.28200
H898        H  0.36912825  0.36706856  0.89183472     0.28200
H899        H  0.35243582  0.32580557  0.99926505     0.18800
H900        H  0.42601844  0.31577655  0.91176101     0.18800
C901        C  0.43367301  0.38432014  0.17433146    -0.07100
C902        C  0.44542164  0.39002079  0.13503428    -0.18200
C903        C  0.44470770  0.36718960  0.10914363     0.10100
C904        C  0.43116000  0.33913392  0.12351985    -0.07000
C905        C  0.43036191  0.33646334  0.16628683    -0.18200
C906        C  0.43291979  0.35984412  0.19241026     0.10200
S907        S  0.45697498  0.37444114  0.05718933    -0.33200
S908        S  0.43041152  0.35594162  0.24714029    -0.33200
H909        H  0.44244054  0.38577833  0.25696807     0.28200
H910        H  0.46012071  0.34880660  0.05032861     0.28200
H911        H  0.45020792  0.41045582  0.12208200     0.18800
H912        H  0.42368908  0.31557642  0.17883894     0.18800
C913        C  0.01735410  0.98755491  0.23720739     0.79300
N914        N  0.02837902  0.51641823  0.23127330    -0.79000
C915        C  0.01304769  0.53140631  0.22309271     0.81700
N916        N  0.48360095  0.51646925  0.22497413    -0.79000
C917        C  0.47380905  0.98834320  0.23166548     0.81800
N918        N  0.49014896  0.97444688  0.24034002    -0.80700
C919        C  0.16199313  0.84443014  0.19956647     0.79300
N920        N  0.14934324  0.81573792  0.20418710    -0.79000
C921        C  0.16441291  0.80111617  0.21332601     0.81700
N922        N  0.19299088  0.81560821  0.21825096    -0.79000
C923        C  0.20612371  0.84462940  0.21365538     0.81800
N924        N  0.19050206  0.85893021  0.20431656    -0.80700
C925        C  0.37623680  0.79264568  0.03106006     0.79300
N926        N  0.35369375  0.77308242  0.05174592    -0.79000
C927        C  0.35697035  0.76967781  0.09269026     0.81700
N928        N  0.38222097  0.78553773  0.11151439    -0.79000
C929        C  0.40448494  0.80452755  0.09116106     0.81800
N930        N  0.40105187  0.80801962  0.05117366    -0.80700
Zr931      Zr  0.12473585  0.90990292  0.15894826     2.17500
O932        O  0.16704632  0.92218103  0.11757789    -0.52300
O933        O  0.10353915  0.87831550  0.09751654    -0.75500
O934        O  0.15010819  0.88104187  0.17548162    -0.82300
O935        O  0.12348334  0.98024040  0.13251663    -0.84000
O936        O  0.12269651  0.85044178  0.22231725    -0.79600
O937        O  0.14839357  0.95361736  0.12256947    -0.91300
O938        O  0.05591633  0.85894623  0.10243576    -0.77200
O939        O  0.08482598  0.86895429  0.18104595    -0.86700
O940        O  0.08391376  0.91743182  0.14421271    -0.86400
O941        O  0.13343730  0.91033750  0.23149166    -0.73200
O942        O  0.12979561  0.95375848  0.19613739    -0.85300
Zr943      Zr  0.05846975  0.92165130  0.28111999     2.26400
Zr944      Zr  0.09222149  0.86997588  0.25346550     2.06300
Zr945      Zr  0.08784607  0.95969726  0.18369548     2.10000
Zr946      Zr  0.04466022  0.87732164  0.16787592     1.78800
O947        O  0.10676779  0.01158617  0.18812035    -0.94100
O948        O  0.01909944  0.82522431  0.16890082    -0.41900
O949        O  0.04851233  0.91955723  0.20834089    -0.78500
O950        O  0.05083236  0.87726942  0.24053031    -0.97200
O951        O  0.09894182  0.91352216  0.28938062    -0.90500
O952        O  0.09749613  0.96240156  0.25651033    -0.93400
C953        C  0.07860365  0.86209247  0.08339483     1.00400
C954        C  0.14341831  0.97529004  0.11627045     1.13300
C955        C  0.14387010  0.85960758  0.19828735     1.04100
O956        O  0.07038397  0.81772981  0.25163682    -0.95500
O957        O  0.05908334  0.85104522  0.30884991    -0.91300
O958        O  0.03465420  0.87830719  0.31730928    -0.84400
C959        C  0.03977174  0.85696061  0.32541972     1.10700
O960        O  0.18112649  0.99217634  0.24300509    -0.97500
Zr961      Zr  0.13820776  0.95396260  0.26795158     1.88900
O962        O  0.08413592  0.93291283  0.35077054    -0.74100
O963        O  0.12185457  0.87091625  0.31095806    -0.53400
O964        O  0.18023441  0.94831847  0.28689104    -0.98100
O965        O  0.14866074  0.99899758  0.30694690    -0.55300
O966        O  0.12993149  0.94232867  0.33926656    -0.74700
C967        C  0.10888524  0.93610046  0.36344244     0.97700
O968        O  0.02076903  0.92025880  0.32715192    -0.63500
O969        O  0.05843228  0.95624961  0.12431307    -0.58300
O970        O  0.03355368  0.95286940  0.26408599    -0.95000
O971        O  0.05477417  0.97833393  0.20897189    -0.93400
O972        O  0.02116451  0.89337265  0.11817121    -0.93700
O973        O  0.99458214  0.85897923  0.18174344    -0.92500
C974        C  0.03615462  0.97168842  0.23725973     1.16500
H975        H  0.08232942  0.91932528  0.11511626     0.32500
H976        H  0.03398077  0.86096110  0.24817691     0.43300
H977        H  0.09887097  0.98018563  0.26985895     0.36800
H978        H  0.15032873  0.90813881  0.23717145     0.33300
H979        H  0.00818456  0.81908719  0.14271673     0.25100
H980        H  0.12573730  0.85389590  0.30560934     0.31100
H981        H  0.19014051  0.96415448  0.30780838     0.37000
H982        H  0.01745884  0.87965737  0.09396819     0.31400
H983        H  0.05208525  0.97161109  0.12951502     0.30300
H984        H  0.09675080  0.51335037  0.16284989     0.32000
H985        H  0.16587572  0.00291431  0.32316578     0.30900
H986        H  0.49233662  0.87629931  0.19587243     0.34900
H987        H  0.02572123  0.94033382  0.33728245     0.27700
H988        H  0.16373668  0.90451952  0.10040856     0.31900
H989        H  0.17469728  0.00505749  0.22951703     0.34800
H990        H  0.07164970  0.96283465  0.10110150     0.27400
H991        H  0.49695870  0.90683140  0.29592334     0.40200
H992        H  0.08320506  0.81259809  0.26782618     0.30300
H993        H  0.03378696  0.81810072  0.16563077     0.37900
H994        H  0.13356236  0.99417042  0.32764150     0.29800
H995        H  0.14018753  0.88753448  0.30681761     0.29800
H996        H  0.18240106  0.92472901  0.13701038     0.30100
C997        C  0.18932585  0.62092813  0.02635443     0.79300
N998        N  0.20831939  0.64032861  0.05437557    -0.79000
C999        C  0.21854957  0.63035083  0.08532974     0.81700
N1000       N  0.20988539  0.60171431  0.08782349    -0.79000
C1001       C  0.19201026  0.58265251  0.05950013     0.81800
N1002       N  0.18166173  0.59247702  0.02941969    -0.80700
C1003       C  0.39613711  0.79637119  0.42549140     0.79300
N1004       N  0.37608252  0.77437689  0.40147906    -0.79000
C1005       C  0.38441056  0.75948301  0.37184634     0.81700
N1006       N  0.41227899  0.76675192  0.36688740    -0.79000
C1007       C  0.43200760  0.78749482  0.39144928     0.81800
N1008       N  0.42354819  0.80190333  0.42037368    -0.80700
Zr1009     Zr  0.29831953  0.68606836  0.31556483     2.17500
O1010       O  0.28574881  0.71379413  0.36858427    -0.52300
O1011       O  0.30250719  0.64999920  0.35798926    -0.75500
O1012       O  0.25204357  0.65690678  0.34525597    -0.82300
O1013       O  0.37448115  0.73235771  0.30747103    -0.84000
O1014       O  0.22437257  0.64043765  0.28783694    -0.79600
O1015       O  0.33876336  0.72243311  0.35340957    -0.91300
O1016       O  0.29080826  0.61215967  0.31122158    -0.77200
O1017       O  0.26875069  0.64625370  0.27193779    -0.86700
O1018       O  0.32827485  0.66652634  0.28345966    -0.86400
O1019       O  0.27714350  0.70479393  0.26616143    -0.73200
O1020       O  0.33064794  0.72201045  0.27225662    -0.85300
Zr1021     Zr  0.30787815  0.67921688  0.14934623     2.26400
Zr1022     Zr  0.24715162  0.66373312  0.22426765     2.06300
Zr1023     Zr  0.36044461  0.70248716  0.24147438     2.10000
Zr1024     Zr  0.29734009  0.62632230  0.24070834     1.78800
O1025       O  0.40549355  0.74450450  0.23697872    -0.94100
O1026       O  0.25288132  0.58293455  0.23751661    -0.41900
O1027       O  0.32983374  0.66187439  0.19872443    -0.78500
O1028       O  0.27491073  0.64221359  0.19030252    -0.97200
O1029       O  0.27881473  0.69942497  0.18096375    -0.90500
O1030       O  0.33979173  0.71954286  0.19130441    -0.93400
C1031       C  0.29565954  0.62325645  0.34829486     1.00400
C1032       C  0.36447298  0.73665286  0.34264471     1.13300
C1033       C  0.22863788  0.64042757  0.32696712     1.04100
O1034       O  0.19968095  0.62710333  0.21229044    -0.95500
O1035       O  0.22900310  0.64572629  0.15469033    -0.91300
O1036       O  0.26437806  0.66298264  0.10845241    -0.84400
C1037       C  0.23835610  0.64883824  0.11774910     1.10700
O1038       O  0.29959381  0.77049143  0.27137216    -0.97500
Zr1039     Zr  0.31048957  0.73982481  0.22159638     1.88900
O1040       O  0.32593256  0.72197935  0.10868518    -0.74100
O1041       O  0.22296748  0.69480810  0.22857637    -0.53400
O1042       O  0.27788623  0.75720587  0.19508810    -0.98100
O1043       O  0.35215192  0.78357758  0.24202420    -0.55300
O1044       O  0.33117351  0.75889160  0.15467711    -0.74700
C1045       C  0.33504805  0.74891041  0.11888346     0.97700
O1046       O  0.30645882  0.64792239  0.08931471    -0.63500
O1047       O  0.38759895  0.67833659  0.26635581    -0.58300
O1048       O  0.34954647  0.67550891  0.12360647    -0.95000
O1049       O  0.38223103  0.69622575  0.17520474    -0.93400
O1050       O  0.33545218  0.61212462  0.24930962    -0.93700
O1051       O  0.29565701  0.58799443  0.19191285    -0.92500
C1052       C  0.37467641  0.68504430  0.13800665     1.16500
H1053       H  0.33865213  0.66130572  0.30302599     0.32500
H1054       H  0.26322345  0.62567427  0.17274433     0.43300
H1055       H  0.35563470  0.73267806  0.17639357     0.36800
H1056       H  0.26630922  0.71321252  0.28113249     0.33300
H1057       H  0.25437369  0.57111748  0.25943651     0.25100
H1058       H  0.22070437  0.69837890  0.25833852     0.31100
H1059       H  0.27895228  0.75522977  0.16473638     0.37000
H1060       H  0.32801791  0.59647079  0.26862103     0.31400
H1061       H  0.39396661  0.67131363  0.24110085     0.30300
H1062       H  0.40417777  0.75323281  0.21126601     0.32000
H1063       H  0.36689802  0.78390151  0.22249171     0.30900
H1064       H  0.29342581  0.59440526  0.16464823     0.34900
H1065       H  0.28888936  0.63006214  0.09163576     0.27700
H1066       H  0.28140607  0.70236790  0.39330399     0.31900
H1067       H  0.30355179  0.76520322  0.29854100     0.34800
H1068       H  0.40497697  0.69409219  0.27834213     0.27400
H1069       H  0.30340173  0.65714557  0.06519793     0.40200
H1070       H  0.20173861  0.60932314  0.21695200     0.30300
H1071       H  0.23851541  0.58932902  0.24755778     0.37900
H1072       H  0.35827828  0.77977566  0.26875572     0.29800
H1073       H  0.23670296  0.71352504  0.21920441     0.29800
H1074       H  0.26737913  0.71273196  0.35957276     0.30100
Zr1075     Zr  0.38127210  0.93032993  0.16973044     2.17500
O1076       O  0.40501167  0.96465866  0.11787423    -0.52300
O1077       O  0.40900020  0.90292551  0.16372246    -0.75500
O1078       O  0.42978087  0.96262908  0.19463745    -0.82300
O1079       O  0.31713134  0.88751796  0.09695450    -0.84000
O1080       O  0.42841071  0.96800417  0.26466738    -0.79600
O1081       O  0.36475901  0.91376490  0.09666186    -0.91300
O1082       O  0.39145815  0.86777809  0.20895888    -0.77200
O1083       O  0.38460699  0.91429980  0.23605507    -0.86700
O1084       O  0.34471445  0.88256049  0.17241083    -0.86400
O1085       O  0.37566565  0.96369547  0.22026616    -0.73200
O1086       O  0.33723672  0.93341137  0.16173316    -0.85300
Zr1087     Zr  0.29718161  0.90129389  0.27818768     2.26400
Zr1088     Zr  0.37820636  0.94632020  0.28664237     2.06300
Zr1089     Zr  0.30066404  0.88553093  0.16556026     2.10000
Zr1090     Zr  0.34858913  0.86690951  0.23827900     1.78800
O1091       O  0.27206380  0.89645888  0.11737764    -0.94100
O1092       O  0.37515242  0.86009546  0.29410246    -0.41900
O1093       O  0.30353630  0.86776597  0.23015006    -0.78500
O1094       O  0.34136371  0.89833434  0.28833838    -0.97200
O1095       O  0.33426044  0.94907042  0.27765704    -0.90500
O1096       O  0.29401820  0.91859179  0.21353987    -0.93400
C1097       C  0.40948835  0.88179183  0.18213414     1.00400
C1098       C  0.34054405  0.89887975  0.07825002     1.13300
C1099       C  0.44197147  0.97207867  0.23025709     1.04100
O1100       O  0.40798072  0.93914721  0.33721118    -0.95500
O1101       O  0.35667503  0.93812781  0.35612120    -0.91300
O1102       O  0.30916704  0.91047612  0.34979270    -0.84400
C1103       C  0.33171529  0.92444135  0.37107915     1.10700
O1104       O  0.35191626  0.99940589  0.15859217    -0.97500
Zr1105     Zr  0.33119583  0.96576064  0.21235163     1.88900
O1106       O  0.27920569  0.93576174  0.30182082    -0.74100
O1107       O  0.39374002  0.99604542  0.31261566    -0.53400
O1108       O  0.35914360  0.01411088  0.24236754    -0.98100
O1109       O  0.29715651  0.97274475  0.16947440    -0.55300
O1110       O  0.29997942  0.97381466  0.26179942    -0.74700
C1111       C  0.28384249  0.96097687  0.29132121     0.97700
O1112       O  0.26938356  0.86255018  0.32231311    -0.63500
O1113       O  0.28461393  0.83524161  0.14222636    -0.58300
O1114       O  0.24856960  0.87274979  0.25180736    -0.95000
O1115       O  0.25111528  0.86172083  0.18365300    -0.93400
O1116       O  0.33183242  0.82134128  0.19758924    -0.93700
O1117       O  0.32096655  0.82988536  0.28456799    -0.92500
C1118       C  0.23722191  0.86048553  0.21679451     1.16500
H1119       H  0.34685446  0.86999694  0.15081140     0.32500
H1120       H  0.34151991  0.89051938  0.31451604     0.43300
H1121       H  0.27592806  0.91883661  0.20969131     0.36800
H1122       H  0.39077709  0.98266838  0.21775627     0.33300
H1123       H  0.37709826  0.84230677  0.28567931     0.25100
H1124       H  0.40182246  0.00763918  0.28851359     0.31100
H1125       H  0.34382151  0.52543665  0.25239082     0.37000
H1126       H  0.34577032  0.82442447  0.17539834     0.31400
H1127       H  0.27482071  0.82425358  0.16614526     0.30300
H1128       H  0.28321621  0.91706253  0.11245962     0.32000
H1129       H  0.29644025  0.49865582  0.18612484     0.30900
H1130       H  0.30175121  0.82889199  0.28338941     0.34900
H1131       H  0.25185120  0.86475170  0.32820327     0.27700
H1132       H  0.42259386  0.96259180  0.11187245     0.31900
H1133       H  0.36223034  0.49891341  0.14527401     0.34800
H1134       H  0.26937222  0.83157137  0.12197365     0.27400
H1135       H  0.26333304  0.84465214  0.30448849     0.40200
H1136       H  0.39712065  0.91912786  0.34519647     0.30300
H1137       H  0.39443634  0.87571166  0.29220483     0.37900
H1138       H  0.27836446  0.96024628  0.18013007     0.29800
H1139       H  0.37611145  0.99806666  0.31840399     0.29800
H1140       H  0.41128316  0.98380407  0.13246105     0.30100
C1141       C  0.30299796  0.58851985  0.44306672     0.79300
N1142       N  0.29060613  0.56058882  0.42824940    -0.79000
C1143       C  0.27923699  0.55319060  0.38990772     0.81700
N1144       N  0.28061578  0.57434380  0.36620415    -0.79000
C1145       C  0.29286742  0.60242249  0.37955372     0.81800
N1146       N  0.30436420  0.60979142  0.41839823    -0.80700
C1147       C  0.17917085  0.59426480  0.40680097     0.79300
N1148       N  0.20110532  0.61750785  0.39072130    -0.79000
C1149       C  0.20601318  0.61704239  0.34907025     0.81700
N1150       N  0.18912103  0.59385675  0.32503679    -0.79000
C1151       C  0.16762305  0.57103842  0.34053936     0.81800
N1152       N  0.16285319  0.57158794  0.38133101    -0.80700
Zr1153     Zr  0.07106969  0.62889253  0.27394903     2.17500
O1154       O  0.03792837  0.60543121  0.32811929    -0.52300
O1155       O  0.09691234  0.60035270  0.27958917    -0.75500
O1156       O  0.03936653  0.57863334  0.25362091    -0.82300
O1157       O  0.12191809  0.69498276  0.34030258    -0.84000
O1158       O  0.02995732  0.57554189  0.18470650    -0.79600
O1159       O  0.08168179  0.65411473  0.34422549    -0.91300
O1160       O  0.11782422  0.60280909  0.21789820    -0.77200
O1161       O  0.08332681  0.61940155  0.20552695    -0.86700
O1162       O  0.11951751  0.66134432  0.26593484    -0.86400
O1163       O  0.03860746  0.63357605  0.22661861    -0.73200
O1164       O  0.07447059  0.67650645  0.28272646    -0.85300
Zr1165     Zr  0.10187664  0.70673312  0.16324900     2.26400
Zr1166     Zr  0.05289380  0.62557913  0.15759448     2.06300
Zr1167     Zr  0.12294875  0.70929396  0.27177908     2.10000
Zr1168     Zr  0.13120999  0.65135087  0.19788344     1.78800
O1169       O  0.11848501  0.74582553  0.31813418    -0.94100
O1170       O  0.14049113  0.62670155  0.13728263    -0.41900
O1171       O  0.13551433  0.69973211  0.20427402    -0.78500
O1172       O  0.10130610  0.65982514  0.15118109    -0.97200
O1173       O  0.05405447  0.67237537  0.16958122    -0.90500
O1174       O  0.08918938  0.71573217  0.23049774    -0.93400
C1175       C  0.10835155  0.59051234  0.25146682     1.00400
C1176       C  0.10148951  0.67751833  0.36078393     1.13300
C1177       C  0.02807364  0.56392861  0.21993932     1.04100
O1178       O  0.06014844  0.59253207  0.10757886    -0.95500
O1179       O  0.06084479  0.64612202  0.08694469    -0.91300
O1180       O  0.09207656  0.69351112  0.09287216    -0.84400
C1181       C  0.07625012  0.67089960  0.07176249     1.10700
O1182       O  0.01161119  0.66142615  0.29664078    -0.97500
Zr1183     Zr  0.04157785  0.68105645  0.23778488     1.88900
O1184       O  0.06932717  0.72688086  0.14579934    -0.74100
O1185       O  0.00448777  0.61043385  0.13428373    -0.53400
O1186       O  0.49168361  0.65977690  0.21888273    -0.98100
O1187       O  0.03823541  0.71876749  0.28319665    -0.55300
O1188       O  0.03470131  0.71301808  0.19337180    -0.74700
C1189       C  0.04648572  0.72627489  0.16138112     0.97700
O1190       O  0.13808229  0.73209367  0.11358716    -0.63500
O1191       O  0.17183294  0.72170878  0.29028232    -0.58300
O1192       O  0.13161330  0.75646072  0.18557489    -0.95000
O1193       O  0.15177622  0.75725608  0.24706072    -0.93400
O1194       O  0.16952310  0.65822977  0.24477358    -0.93700
O1195       O  0.17547872  0.67633183  0.16216898    -0.92500
C1196       C  0.14890487  0.76959602  0.21540305     1.16500
H1197       H  0.13071624  0.65849375  0.28688343     0.32500
H1198       H  0.10802163  0.65793755  0.12390191     0.43300
H1199       H  0.09050416  0.73493621  0.23464967     0.36800
H1200       H  0.01959819  0.61950781  0.23149302     0.33300
H1201       H  0.15572871  0.62164455  0.14580978     0.25100
H1202       H  0.00490935  0.62709062  0.12016139     0.31100
H1203       H  0.48681473  0.63980872  0.20839218     0.37000
H1204       H  0.16342124  0.64006601  0.25887275     0.31400
H1205       H  0.17166853  0.70413451  0.30116842     0.30300
H1206       H  0.09846732  0.74223238  0.31551514     0.32000
H1207       H  0.55114673  0.71807182  0.30935536     0.30900
H1208       H  0.17261819  0.69080935  0.14661668     0.34900
H1209       H  0.13628034  0.75000634  0.10879994     0.27700
H1210       H  0.04077164  0.58819300  0.33362262     0.31900
H1211       H  0.52381423  0.66553084  0.32051382     0.34800
H1212       H  0.18163904  0.72360901  0.26362714     0.27400
H1213       H  0.15631516  0.73843108  0.12839319     0.40200
H1214       H  0.08046248  0.60212901  0.10108493     0.30300
H1215       H  0.12366536  0.60801002  0.13417559     0.37900
H1216       H  0.04942049  0.73697024  0.26992298     0.29800
H1217       H  0.00174141  0.59570021  0.11173444     0.29800
H1218       H  0.01895264  0.59785666  0.31517400     0.30100
C1219       C  0.41167610  0.66429067  0.05126825     0.79300
N1220       N  0.43854855  0.68383162  0.05997823    -0.79000
C1221       C  0.44468330  0.70379558  0.09185301     0.81700
N1222       N  0.42360884  0.70329224  0.11675284    -0.79000
C1223       C  0.39659833  0.68395364  0.10953306     0.81800
N1224       N  0.39043971  0.66449014  0.07622343    -0.80700
C1225       C  0.46629127  0.53071316  0.75243382     0.79300
N1226       N  0.49460763  0.54354925  0.74444807    -0.79000
C1227       C  0.00893460  0.52839254  0.73462197     0.81700
N1228       N  0.49558147  0.49851922  0.73287153    -0.79000
C1229       C  0.46759862  0.98363957  0.74062530     0.81800
N1230       N  0.45305986  0.99994967  0.74948173    -0.80700
Zr1231     Zr  0.10417125  0.58883356  0.78021899     2.17500
O1232       O  0.07781209  0.55278624  0.82877122    -0.52300
O1233       O  0.07794849  0.61794981  0.78680162    -0.75500
O1234       O  0.12300008  0.60787601  0.85137723    -0.82300
O1235       O  0.05218747  0.54216117  0.69490092    -0.84000
O1236       O  0.17007562  0.63517192  0.84569670    -0.79600
O1237       O  0.05466009  0.55763483  0.76254230    -0.91300
O1238       O  0.09206875  0.64885149  0.73552453    -0.77200
O1239       O  0.13970865  0.63622496  0.77067803    -0.86700
O1240       O  0.09711751  0.59997999  0.71223743    -0.86400
O1241       O  0.14862097  0.58606948  0.78619991    -0.73200
O1242       O  0.10815180  0.55289513  0.73288223    -0.85300
Zr1243     Zr  0.18241178  0.61030629  0.66381088     2.26400
Zr1244     Zr  0.18409731  0.63374780  0.77548971     2.06300
Zr1245     Zr  0.10091233  0.56493459  0.66507417     2.10000
Zr1246     Zr  0.13265497  0.64688818  0.70280978     1.78800
O1247       O  0.08678057  0.51466113  0.64343097    -0.94100
O1248       O  0.15261278  0.69321103  0.74138649    -0.41900
O1249       O  0.13772500  0.61218952  0.65620624    -0.78500
O1250       O  0.17802717  0.64673018  0.70829032    -0.97200
O1251       O  0.18968279  0.59833291  0.73040977    -0.90500
O1252       O  0.14545497  0.56305192  0.67110924    -0.93400
C1253       C  0.07595028  0.63725089  0.76551603     1.00400
C1254       C  0.04061365  0.54331596  0.73018176     1.13300
C1255       C  0.14776988  0.62398974  0.86717405     1.04100
O1256       O  0.20311722  0.68399181  0.80049897    -0.95500
O1257       O  0.23160312  0.66051287  0.75012993    -0.91300
O1258       O  0.23167422  0.63956281  0.68677805    -0.84400
C1259       C  0.24425432  0.65685019  0.71790462     1.10700
O1260       O  0.13550745  0.52027881  0.79513293    -0.97500
Zr1261     Zr  0.15324109  0.55142093  0.73787425     1.88900
O1262       O  0.19996414  0.57516379  0.64268354    -0.74100
O1263       O  0.21531211  0.62396421  0.82036644    -0.53400
O1264       O  0.19288017  0.55256201  0.77713872    -0.98100
O1265       O  0.12665439  0.50069186  0.71716184    -0.55300
O1266       O  0.18242419  0.53995778  0.68787589    -0.74700
C1267       C  0.19663459  0.55097693  0.65578776     0.97700
O1268       O  0.20946727  0.64300712  0.61165766    -0.63500
O1269       O  0.06819502  0.57063196  0.61810536    -0.58300
O1270       O  0.16562208  0.59954419  0.59396222    -0.95000
O1271       O  0.11809324  0.57137758  0.59283520    -0.93400
O1272       O  0.10475590  0.64955334  0.64542512    -0.93700
O1273       O  0.15566760  0.68510266  0.65598914    -0.92500
C1274       C  0.14213131  0.58495111  0.57508903     1.16500
H1275       H  0.07857450  0.59911101  0.70854306     0.32500
H1276       H  0.19259998  0.66544557  0.70269382     0.43300
H1277       H  0.14590322  0.54938846  0.64987403     0.36800
H1278       H  0.15065868  0.58078892  0.81353020     0.33300
H1279       H  0.14241006  0.69001453  0.76780920     0.25100
H1280       H  0.20344603  0.60486989  0.83082089     0.31100
H1281       H  0.19099130  0.53261143  0.77429441     0.37000
H1282       H  0.08596638  0.63331355  0.64829274     0.31400
H1283       H  0.05389433  0.55082319  0.61090541     0.30300
H1284       H  0.07204818  0.51034598  0.62206471     0.32000
H1285       H  0.14233561  0.99384008  0.71805873     0.30900
H1286       H  0.16517524  0.67721930  0.63581200     0.34900
H1287       H  0.21861511  0.66225023  0.62614142     0.27700
H1288       H  0.06936081  0.56235880  0.84805801     0.31900
H1289       H  0.12069607  0.52519200  0.80745217     0.34800
H1290       H  0.05800999  0.57944141  0.63536511     0.27400
H1291       H  0.22509284  0.63771655  0.60466553     0.40200
H1292       H  0.21922060  0.68680724  0.81858723     0.30300
H1293       H  0.17193954  0.69630281  0.74883672     0.37900
H1294       H  0.12548281  0.50006678  0.68674101     0.29800
H1295       H  0.22872472  0.62056786  0.80164368     0.29800
H1296       H  0.09227196  0.55039196  0.84524714     0.30100
C1297       C  0.09799181  0.71841995  0.91306626     0.79300
N1298       N  0.12196291  0.73698286  0.89382845    -0.79000
C1299       C  0.12027460  0.74173155  0.85285816     0.81700
N1300       N  0.09518263  0.72796955  0.83257952    -0.79000
C1301       C  0.07157228  0.71006225  0.85163109     0.81800
N1302       N  0.07343782  0.70555944  0.89161703    -0.80700
C1303       C  0.08435443  0.73089231  0.51414649     0.79300
N1304       N  0.05671466  0.72004877  0.52454215    -0.79000
C1305       C  0.04805442  0.73160433  0.55705573     0.81700
N1306       N  0.06736138  0.75381487  0.57980108    -0.79000
C1307       C  0.09497193  0.76446662  0.57162966     0.81800
N1308       N  0.10384040  0.75291007  0.53859575    -0.80700
Zr1309     Zr  0.39126251  0.63844369  0.68957250     2.17500
O1310       O  0.40667894  0.68991470  0.68525625    -0.52300
O1311       O  0.36732567  0.62361091  0.62334279    -0.75500
O1312       O  0.43030832  0.65758670  0.64266954    -0.82300
O1313       O  0.32424474  0.62919869  0.74627804    -0.84000
O1314       O  0.45958710  0.63773883  0.65898047    -0.79600
O1315       O  0.35702957  0.65783550  0.70233464    -0.91300
O1316       O  0.34880412  0.57497765  0.62128731    -0.77200
O1317       O  0.40234192  0.59937409  0.66927494    -0.86700
O1318       O  0.34991960  0.59545125  0.70034335    -0.86400
O1319       O  0.43156009  0.64469436  0.73036065    -0.73200
O1320       O  0.38205872  0.64056107  0.76155371    -0.85300
Zr1321     Zr  0.39440921  0.56552531  0.79920628     2.26400
Zr1322     Zr  0.44086057  0.60398655  0.71214161     2.06300
Zr1323     Zr  0.34158085  0.59665784  0.77233522     2.10000
Zr1324     Zr  0.36182438  0.55699840  0.68259327     1.78800
O1325       O  0.32873105  0.61956762  0.83155438    -0.94100
O1326       O  0.33253910  0.51693125  0.63544416    -0.41900
O1327       O  0.35399390  0.55769714  0.75546132    -0.78500
O1328       O  0.40038293  0.56085982  0.72575171    -0.97200
O1329       O  0.43513209  0.60832342  0.78542118    -0.90500
O1330       O  0.38096985  0.60397840  0.81462816    -0.93400
C1331       C  0.35260888  0.59877678  0.60575435     1.00400
C1332       C  0.33412505  0.65035121  0.72278705     1.13300
C1333       C  0.45297771  0.65427820  0.63792645     1.04100
O1334       O  0.45126934  0.57923452  0.65292546    -0.95500
O1335       O  0.45859432  0.56996996  0.73164078    -0.91300
O1336       O  0.42939536  0.54425394  0.78141352    -0.84400
C1337       C  0.45033777  0.54935332  0.75611496     1.10700
O1338       O  0.44363744  0.69715152  0.78657081    -0.97500
Zr1339     Zr  0.42215676  0.64673295  0.80205898     1.88900
O1340       O  0.40527572  0.58654489  0.87242566    -0.74100
O1341       O  0.49026579  0.63185358  0.72968825    -0.53400
O1342       O  0.47185488  0.66376678  0.81936526    -0.98100
O1343       O  0.41000493  0.68048030  0.84400650    -0.55300
O1344       O  0.42095376  0.63507997  0.87259705    -0.74700
C1345       C  0.41281220  0.61176233  0.89114617     0.97700
O1346       O  0.38606274  0.52149920  0.83270919    -0.63500
O1347       O  0.29254430  0.57129773  0.74934275    -0.58300
O1348       O  0.34800716  0.53688908  0.82579105    -0.95000
O1349       O  0.31828813  0.55790329  0.81746574    -0.93400
O1350       O  0.31992719  0.52269730  0.71536208    -0.93700
O1351       O  0.38651537  0.53090988  0.64962802    -0.92500
C1352       C  0.32456630  0.53867266  0.83131066     1.16500
H1353       H  0.33361502  0.59415656  0.68536243     0.32500
H1354       H  0.40391902  0.54428049  0.71960483     0.43300
H1355       H  0.37380097  0.60398555  0.84202207     0.36800
H1356       H  0.44764405  0.66230821  0.72407778     0.33300
H1357       H  0.31457408  0.51845777  0.63211055     0.25100
H1358       H  0.49262223  0.65196361  0.73194654     0.31100
H1359       H  0.48204007  0.67850808  0.79950259     0.37000
H1360       H  0.30375219  0.52303825  0.70057161     0.31400
H1361       H  0.28928884  0.55114856  0.74343888     0.30300
H1362       H  0.31812231  0.60400940  0.85005964     0.32000
H1363       H  0.42604212  0.69044491  0.86354406     0.30900
H1364       H  0.38077260  0.51347575  0.66536493     0.34900
H1365       H  0.38371431  0.50683586  0.81020861     0.27700
H1366       H  0.40307846  0.69241021  0.65630404     0.31900
H1367       H  0.43008522  0.69888683  0.76734785     0.34800
H1368       H  0.28127829  0.57082202  0.77418868     0.27400
H1369       H  0.40390671  0.52511133  0.84697568     0.40200
H1370       H  0.47176121  0.59030719  0.64856351     0.30300
H1371       H  0.34150624  0.52120201  0.60814125     0.37900
H1372       H  0.39416823  0.66836679  0.86132484     0.29800
H1373       H  0.49161447  0.62719385  0.75840486     0.29800
H1374       H  0.42745493  0.69861979  0.68843281     0.30100
C1375       C  0.06303852  0.80953860  0.91566064     0.79300
N1376       N  0.03568085  0.79645294  0.90266281    -0.79000
C1377       C  0.02841886  0.78532030  0.86337965     0.81700
N1378       N  0.04934937  0.78790922  0.83633207    -0.79000
C1379       C  0.07691516  0.80086410  0.84843425     0.81800
N1380       N  0.08362281  0.81162514  0.88824269    -0.80700
Zr1381     Zr  0.17962951  0.82888410  0.63808168     2.17500
O1382       O  0.19349784  0.80205918  0.58532115    -0.52300
O1383       O  0.17030280  0.86324460  0.59739442    -0.75500
O1384       O  0.14010280  0.79802550  0.59517115    -0.82300
O1385       O  0.25478815  0.87270891  0.66152918    -0.84000
O1386       O  0.10352580  0.78461390  0.64011894    -0.79600
O1387       O  0.22475680  0.85658784  0.60628086    -0.91300
O1388       O  0.17114068  0.89690705  0.64616961    -0.77200
O1389       O  0.14650729  0.84274360  0.67229485    -0.86700
O1390       O  0.20656141  0.86966706  0.68304835    -0.86400
O1391       O  0.15034586  0.78871885  0.67822426    -0.73200
O1392       O  0.20392807  0.81158581  0.68467536    -0.85300
Zr1393     Zr  0.17156903  0.83060987  0.80335074     2.26400
Zr1394     Zr  0.11763335  0.80352683  0.71232337     2.06300
Zr1395     Zr  0.23212685  0.85299713  0.72689745     2.10000
Zr1396     Zr  0.17384614  0.88331322  0.71633087     1.78800
O1397       O  0.25304730  0.81929008  0.71744412    -0.94100
O1398       O  0.12943380  0.88756349  0.72033402    -0.41900
O1399       O  0.20111542  0.86970197  0.76232776    -0.78500
O1400       O  0.14484331  0.84490019  0.75709555    -0.97200
O1401       O  0.14258240  0.78983343  0.76045504    -0.90500
O1402       O  0.20332101  0.81493583  0.76895052    -0.93400
C1403       C  0.16965871  0.88738831  0.60831720     1.00400
C1404       C  0.24896848  0.87212453  0.62282732     1.13300
C1405       C  0.11413885  0.78404596  0.60392019     1.04100
O1406       O  0.08289885  0.82138985  0.69804043    -0.95500
O1407       O  0.09291811  0.79932024  0.77916193    -0.91300
O1408       O  0.12498374  0.81653375  0.83232259    -0.84400
C1409       C  0.09961524  0.80553465  0.81792699     1.10700
O1410       O  0.19382621  0.74712723  0.68532521    -0.97500
Zr1411     Zr  0.17364639  0.77368154  0.72804754     1.88900
O1412       O  0.15857145  0.78767153  0.84254992    -0.74100
O1413       O  0.08272843  0.75392210  0.71366226    -0.53400
O1414       O  0.13742079  0.72955283  0.69606655    -0.98100
O1415       O  0.20161627  0.75499742  0.76519797    -0.55300
O1416       O  0.14522973  0.75365636  0.79001383    -0.74700
C1417       C  0.14399728  0.76180526  0.82815280     0.97700
O1418       O  0.17341537  0.86655925  0.85680280    -0.63500
O1419       O  0.28008683  0.88958535  0.73988329    -0.58300
O1420       O  0.21513877  0.84863851  0.84448396    -0.95000
O1421       O  0.24975959  0.86966275  0.79792499    -0.93400
O1422       O  0.20822769  0.93290541  0.70897479    -0.93700
O1423       O  0.18072450  0.91866269  0.77318019    -0.92500
C1424       C  0.24077113  0.86485147  0.83515041     1.16500
H1425       H  0.21809638  0.88647620  0.66858808     0.32500
H1426       H  0.13255378  0.85116828  0.77271464     0.43300
H1427       H  0.21444663  0.81044148  0.78824710     0.36800
H1428       H  0.14078141  0.77193908  0.66000790     0.33300
H1429       H  0.13495578  0.90846177  0.72424207     0.25100
H1430       H  0.08990140  0.74612646  0.73547666     0.31100
H1431       H  0.12311763  0.72174909  0.71769097     0.37000
H1432       H  0.22545839  0.93180665  0.69816201     0.31400
H1433       H  0.29191509  0.88574614  0.71868011     0.30300
H1434       H  0.25857623  0.81723864  0.74557336     0.32000
H1435       H  0.19746751  0.75698794  0.79468668     0.30900
H1436       H  0.16391284  0.90970169  0.79061196     0.34900
H1437       H  0.19182760  0.88325530  0.85338547     0.27700
H1438       H  0.18825519  0.80693742  0.55869957     0.31900
H1439       H  0.19793590  0.75662114  0.65886577     0.34800
H1440       H  0.27957075  0.90761456  0.73236579     0.27400
H1441       H  0.15945985  0.87324777  0.84771980     0.40200
H1442       H  0.06487785  0.80387559  0.69451749     0.30300
H1443       H  0.12149113  0.88239562  0.69200871     0.37900
H1444       H  0.22150855  0.76902231  0.76225103     0.29800
H1445       H  0.06569741  0.75494655  0.72546289     0.29800
H1446       H  0.18038722  0.78160307  0.58813332     0.30100
Zr1447     Zr  0.41551698  0.88815988  0.67484463     2.17500
O1448       O  0.45504927  0.91265895  0.62968099    -0.52300
O1449       O  0.39012275  0.91624515  0.66463471    -0.75500
O1450       O  0.40146487  0.86927150  0.60112638    -0.82300
O1451       O  0.44773552  0.93827582  0.77247744    -0.84000
O1452       O  0.37322448  0.82122960  0.60125077    -0.79600
O1453       O  0.44470454  0.93816006  0.70231240    -0.91300
O1454       O  0.35528207  0.90379942  0.71165825    -0.77200
O1455       O  0.36790161  0.85210509  0.67551322    -0.86700
O1456       O  0.39714145  0.89367055  0.74101367    -0.86400
O1457       O  0.41763310  0.84276507  0.66615626    -0.73200
O1458       O  0.44485666  0.88366881  0.72781546    -0.85300
Zr1459     Zr  0.38067189  0.80596901  0.78272871     2.26400
Zr1460     Zr  0.36985894  0.80644259  0.66977155     2.06300
Zr1461     Zr  0.42478823  0.88780136  0.79382142     2.10000
Zr1462     Zr  0.34983724  0.85889617  0.74047366     1.78800
O1463       O  0.47203795  0.90676319  0.82369126    -0.94100
O1464       O  0.30982541  0.84392719  0.69321621    -0.41900
O1465       O  0.37740281  0.85119039  0.79227582    -0.78500
O1466       O  0.35002472  0.81207570  0.73390753    -0.97200
O1467       O  0.40010293  0.80059351  0.71850099    -0.90500
O1468       O  0.42806676  0.84304647  0.78370882    -0.93400
C1469       C  0.37067224  0.92020176  0.68397435     1.00400
C1470       C  0.45250661  0.95127986  0.73832974     1.13300
C1471       C  0.38600318  0.84433761  0.58259244     1.04100
O1472       O  0.32210635  0.78693093  0.64159417    -0.95500
O1473       O  0.34092846  0.75737530  0.68812984    -0.91300
O1474       O  0.34640366  0.75789502  0.75721390    -0.84400
C1475       C  0.33575170  0.74504946  0.72231893     1.10700
O1476       O  0.48423774  0.86348524  0.66987079    -0.97500
Zr1477     Zr  0.44684708  0.83838265  0.71802038     1.88900
O1478       O  0.41460129  0.78773570  0.80291318    -0.74100
O1479       O  0.38553881  0.77593845  0.62675159    -0.53400
O1480       O  0.45496284  0.80569879  0.66825861    -0.98100
O1481       O  0.49225245  0.86210877  0.75409219    -0.55300
O1482       O  0.45041420  0.80228315  0.75723646    -0.74700
C1483       C  0.43755998  0.78808385  0.78794740     0.97700
O1484       O  0.35643676  0.77417443  0.83748815    -0.63500
O1485       O  0.40895742  0.91537134  0.84238049    -0.58300
O1486       O  0.37303395  0.82593233  0.84749259    -0.95000
O1487       O  0.41446406  0.86421269  0.86113130    -0.93400
O1488       O  0.33974955  0.88664665  0.79614651    -0.93700
O1489       O  0.30790332  0.83274082  0.78032359    -0.92500
C1490       C  0.39265164  0.84187749  0.87251582     1.16500
H1491       H  0.39795690  0.91257660  0.74619069     0.32500
H1492       H  0.33091597  0.79746183  0.73594950     0.43300
H1493       H  0.43924162  0.84146571  0.80588617     0.36800
H1494       H  0.42548881  0.84116203  0.63963674     0.33300
H1495       H  0.31578666  0.85847191  0.67221022     0.25100
H1496       H  0.40307197  0.78936432  0.61377747     0.31100
H1497       H  0.47363763  0.80692590  0.67595335     0.37000
H1498       H  0.32720237  0.89395331  0.78371419     0.31400
H1499       H  0.42642491  0.92976741  0.85615213     0.30300
H1500       H  0.47629145  0.92672802  0.83354512     0.32000
H1501       H  0.48768989  0.86112567  0.78375238     0.30900
H1502       H  0.31347912  0.82125762  0.79845996     0.34900
H1503       H  0.33605852  0.76840507  0.83295923     0.27700
H1504       H  0.44802865  0.92236941  0.61046093     0.31900
H1505       H  0.48822848  0.88401559  0.67440024     0.34800
H1506       H  0.40258977  0.92666871  0.82509286     0.27400
H1507       H  0.35899608  0.75639781  0.83181740     0.40200
H1508       H  0.32047238  0.77058077  0.62258115     0.30300
H1509       H  0.30888577  0.82629026  0.67827877     0.37900
H1510       H  0.49926129  0.88274476  0.74893427     0.29800
H1511       H  0.39197787  0.76601051  0.64642582     0.29800
H1512       H  0.45697065  0.89713459  0.61250731     0.30100
C1513       C  0.29422741  0.91583838  0.53870899     0.79300
N1514       N  0.27351673  0.89298898  0.55708722    -0.79000
C1515       C  0.27053918  0.89456027  0.59897246     0.81700
N1516       N  0.28770188  0.91851843  0.62110114    -0.79000
C1517       C  0.30777128  0.94120175  0.60335915     0.81800
N1518       N  0.31102433  0.93954528  0.56222065    -0.80700
C1519       C  0.29189885  0.89825713  0.92430885     0.79300
N1520       N  0.27405362  0.87726749  0.89659202    -0.79000
C1521       C  0.25940532  0.88443581  0.86816836     0.81700
N1522       N  0.26255625  0.91174625  0.86807463    -0.79000
C1523       C  0.27969172  0.93248818  0.89520023     0.81800
N1524       N  0.29446486  0.92555777  0.92271632    -0.80700
C1525       C  0.15474187  0.92460644  0.52013080     0.79300
N1526       N  0.17255332  0.95207906  0.53261620    -0.79000
C1527       C  0.18985420  0.95808270  0.56590060     0.81700
N1528       N  0.18839936  0.93610158  0.58789259    -0.79000
C1529       C  0.17084624  0.90836560  0.57734526     0.81800
N1530       N  0.15365237  0.90230879  0.54294924    -0.80700
C1531       C  0.31854709  0.66782685  0.72014833     0.79300
N1532       N  0.33281534  0.69683146  0.72096690    -0.79000
C1533       C  0.31881542  0.71358025  0.72096719     0.81700
N1534       N  0.28993366  0.70099432  0.71976708    -0.79000
C1535       C  0.27545274  0.67163067  0.71814523     0.81800
N1536       N  0.28994040  0.65531754  0.71889150    -0.80700
C1537       C  0.36443280  0.94412133  0.67199526    -0.07100
C1538       C  0.34329775  0.94907840  0.69329727    -0.18200
C1539       C  0.32714183  0.95977164  0.67253185     0.10100
C1540       C  0.33084105  0.96213749  0.62975381    -0.07000
C1541       C  0.35783393  0.96851387  0.61467505    -0.18200
C1542       C  0.37475019  0.95844309  0.63505852     0.10200
S1543       S  0.29686292  0.96100731  0.69766596    -0.33200
S1544       S  0.40683120  0.96109954  0.61059090    -0.33200
H1545       H  0.40923170  0.98260852  0.58406849     0.28200
H1546       H  0.28711504  0.96958774  0.66324778     0.28200
H1547       H  0.33706245  0.94144559  0.72381977     0.18800
H1548       H  0.36277482  0.97484178  0.58330643     0.18800
C1549       C  0.45232739  0.77379863  0.80911060    -0.07100
C1550       C  0.45388851  0.77629206  0.85227500    -0.18200
C1551       C  0.97651033  0.77594574  0.87290090     0.10100
C1552       C  0.99868242  0.77520951  0.84799415    -0.07000
C1553       C  0.49259899  0.76252417  0.80817068    -0.18200
C1554       C  0.47047907  0.76430924  0.78729126     0.10200
S1555       S  0.97757064  0.77608872  0.92825624    -0.33200
S1556       S  0.46788782  0.75620307  0.73227760    -0.33200
H1557       H  0.43896064  0.74930458  0.72917289     0.28200
H1558       H  0.94807687  0.76210040  0.93215123     0.28200
H1559       H  0.43916858  0.78225713  0.86921990     0.18800
H1560       H  0.50740035  0.75719680  0.79020907     0.18800
C1561       C  0.30331354  0.51609498  0.85429649    -0.07100
C1562       C  0.30999553  0.51290252  0.89461243    -0.18200
C1563       C  0.30530056  0.98649856  0.91335648     0.10100
C1564       C  0.28571225  0.96286868  0.88888139    -0.07000
C1565       C  0.27476597  0.96837811  0.85278006    -0.18200
C1566       C  0.28671546  0.99548594  0.83681922     0.10200
S1567       S  0.31541997  0.98265913  0.96476209    -0.33200
S1568       S  0.27484324  0.00085079  0.78757564    -0.33200
H1569       H  0.24638492  0.47146550  0.77736196     0.28200
H1570       H  0.33201477  0.01206413  0.97468119     0.28200
H1571       H  0.32759680  0.53027609  0.91058961     0.18800
H1572       H  0.25838153  0.95099949  0.83495117     0.18800
C1573       C  0.47377498  0.67051678  0.60695862    -0.07100
C1574       C  0.49335731  0.65987921  0.59459892    -0.18200
C1575       C  0.99747344  0.69296098  0.55392503     0.10100
C1576       C  0.01994946  0.71620965  0.57484851    -0.07000
C1577       C  0.01740877  0.72223032  0.61712297    -0.18200
C1578       C  0.99490737  0.70400834  0.63946174     0.10200
S1579       S  0.99603986  0.68599729  0.49890759    -0.33200
S1580       S  0.99368158  0.71144751  0.69436821    -0.33200
H1581       H  0.46287299  0.73462395  0.57782799     0.28200
H1582       H  0.00939617  0.71525211  0.49037425     0.28200
H1583       H  0.49059949  0.63889967  0.60326867     0.18800
H1584       H  0.03396618  0.74017451  0.63379969     0.18800
C1585       C  0.20561673  0.98814019  0.58366276    -0.07100
C1586       C  0.21523313  0.99224990  0.62486899    -0.18200
C1587       C  0.21355917  0.51211478  0.64670744     0.10100
C1588       C  0.20666517  0.53281261  0.62972968    -0.07000
C1589       C  0.20377128  0.53213424  0.58669860    -0.18200
C1590       C  0.20643211  0.01225222  0.56412836     0.10200
S1591       S  0.22392862  0.51539082  0.70013778    -0.33200
S1592       S  0.20398873  0.01311862  0.50904481    -0.33200
H1593       H  0.21653320  0.99422970  0.50020308     0.28200
H1594       H  0.23447169  0.49449622  0.69697108     0.28200
H1595       H  0.21743162  0.97506670  0.63963471     0.18800
H1596       H  0.20053538  0.54901269  0.57263490     0.18800
C1597       C  0.04698152  0.68955403  0.82664935    -0.07100
C1598       C  0.04928972  0.69268803  0.78413081    -0.18200
C1599       C  0.05459105  0.67248347  0.75930338     0.10100
C1600       C  0.05551014  0.64881294  0.77832044    -0.07000
C1601       C  0.04152132  0.64108927  0.81595712    -0.18200
C1602       C  0.03506159  0.66110789  0.83900978     0.10200
S1603       S  0.06174095  0.67831724  0.70531996    -0.33200
S1604       S  0.01845804  0.65189319  0.88805589    -0.33200
H1605       H  0.01520160  0.67750239  0.89478982     0.28200
H1606       H  0.04857087  0.69679215  0.70240291     0.28200
H1607       H  0.05313592  0.71317411  0.77237629     0.18800
H1608       H  0.03831442  0.62117506  0.82924739     0.18800
C1609       C  0.40810207  0.61534357  0.93617786    -0.07100
C1610       C  0.38622888  0.62342348  0.94650063    -0.18200
C1611       C  0.38535553  0.63719015  0.98484202     0.10100
C1612       C  0.40697122  0.64352782  0.01443893    -0.07000
C1613       C  0.42780462  0.63363602  0.00513299    -0.18200
C1614       C  0.42857724  0.61970163  0.96675702     0.10200
S1615       S  0.35850509  0.64985238  0.99163967    -0.33200
S1616       S  0.45751034  0.61019190  0.95782071    -0.33200
H1617       H  0.44637449  0.59216172  0.92225484     0.28200
H1618       H  0.34817089  0.63502821  0.02761010     0.28200
H1619       H  0.37073883  0.62099990  0.92309529     0.18800
H1620       H  0.44459306  0.63809299  0.02730459     0.18800
C1621       C  0.10036605  0.68785195  0.40478095    -0.07100
C1622       C  0.11920071  0.71660664  0.41688388    -0.18200
C1623       C  0.11515289  0.73106092  0.45237262     0.10100
C1624       C  0.09221275  0.71651415  0.47819068    -0.07000
C1625       C  0.07489480  0.68709577  0.46822311    -0.18200
C1626       C  0.07898984  0.67261916  0.43261587     0.10200
S1627       S  0.13856663  0.76871249  0.46044530    -0.33200
S1628       S  0.05661720  0.63473229  0.42524482    -0.33200
H1629       H  0.07834492  0.62802086  0.40970152     0.28200
H1630       H  0.11670171  0.77718806  0.46768098     0.28200
H1631       H  0.13636901  0.72901363  0.39708358     0.18800
H1632       H  0.05777526  0.67509405  0.48839262     0.18800
C1633       C  0.09655912  0.70976791  0.95631384    -0.07100
C1634       C  0.10766567  0.69050745  0.96658198    -0.18200
C1635       C  0.09885876  0.67457352  0.00234806     0.10100
C1636       C  0.07732553  0.67633850  0.02724539    -0.07000
C1637       C  0.06592315  0.69507709  0.01614948    -0.18200
C1638       C  0.07596963  0.71239665  0.98245525     0.10200
S1639       S  0.11549788  0.65234248  0.01684705    -0.33200
S1640       S  0.06212649  0.73821670  0.97436866    -0.33200
H1641       H  0.08570256  0.75740187  0.95337260     0.28200
H1642       H  0.13937944  0.66527134  0.99213750     0.28200
H1643       H  0.12257394  0.68727556  0.94604374     0.18800
H1644       H  0.05041311  0.69776224  0.03584313     0.18800
C1645       C  0.03023675  0.73836818  0.13902721    -0.07100
C1646       C  0.52329391  0.73068299  0.09853798    -0.18200
C1647       C  0.49743727  0.72430302  0.07936676     0.10100
C1648       C  0.47438089  0.72260485  0.10391639    -0.07000
C1649       C  0.47985998  0.73455234  0.14455375    -0.18200
C1650       C  0.50570922  0.74126510  0.16351434     0.10200
S1651       S  0.49493982  0.71752820  0.02425081    -0.33200
S1652       S  0.01579569  0.75996623  0.21311108    -0.33200
H1653       H  0.04497316  0.76795239  0.21362068     0.28200
H1654       H  0.47426917  0.72763604  0.01915971     0.28200
H1655       H  0.53987880  0.72861801  0.08063047     0.18800
H1656       H  0.46314373  0.73576697  0.16326947     0.18800
C1657       C  0.17008961  0.59307990  0.45062441    -0.07100
C1658       C  0.16245271  0.56700692  0.46988653    -0.18200
C1659       C  0.14940413  0.56229001  0.50845997     0.10100
C1660       C  0.14456972  0.58431046  0.52962697    -0.07000
C1661       C  0.15117010  0.60996232  0.50992248    -0.18200
C1662       C  0.16309911  0.61422884  0.47029998     0.10200
S1663       S  0.14017768  0.52809731  0.53011883    -0.33200
S1664       S  0.16822768  0.64612724  0.44459045    -0.33200
H1665       H  0.15308464  0.65567306  0.47276124     0.28200
H1666       H  0.11557231  0.52696921  0.54922484     0.28200
H1667       H  0.16622612  0.54986010  0.45432459     0.18800
H1668       H  0.14783647  0.62709540  0.52629820     0.18800
C1669       C  0.14549949  0.55098269  0.31169031    -0.07100
C1670       C  0.15235428  0.55358101  0.26973591    -0.18200
C1671       C  0.13637750  0.56143348  0.24354867     0.10100
C1672       C  0.11315584  0.56523753  0.26038843    -0.07000
C1673       C  0.10101478  0.55114940  0.29621462    -0.18200
C1674       C  0.11702578  0.54313267  0.32196894     0.10200
S1675       S  0.14868586  0.56965707  0.19171066    -0.33200
S1676       S  0.10206539  0.52874372  0.37034920    -0.33200
H1677       H  0.12347002  0.52068661  0.38039799     0.28200
H1678       H  0.12229106  0.56463654  0.17512613     0.28200
H1679       H  0.17288926  0.55570274  0.25967554     0.18800
H1680       H  0.08117821  0.55045405  0.30724410     0.18800
C1681       C  0.31531457  0.59434552  0.48557453    -0.07100
C1682       C  0.30065512  0.57433467  0.51488730    -0.18200
C1683       C  0.31188613  0.57571212  0.55426506     0.10100
C1684       C  0.33894074  0.59749883  0.56513897    -0.07000
C1685       C  0.35313073  0.61845481  0.53658502    -0.18200
C1686       C  0.34185989  0.61689006  0.49694016     0.10200
S1687       S  0.29049926  0.55039803  0.59091673    -0.33200
S1688       S  0.36324756  0.64296731  0.46152088    -0.33200
H1689       H  0.35878468  0.62255916  0.42850222     0.28200
H1690       H  0.26718422  0.53447308  0.56480554     0.28200
H1691       H  0.28011259  0.55728971  0.50669756     0.18800
H1692       H  0.37374952  0.63550061  0.54453026     0.18800
C1693       C  0.30133888  0.91578910  0.49429534    -0.07100
C1694       C  0.31024948  0.94213871  0.47542495    -0.18200
C1695       C  0.32352968  0.94660955  0.43721658     0.10100
C1696       C  0.32722188  0.92401333  0.41589094    -0.07000
C1697       C  0.31826855  0.89755144  0.43431907    -0.18200
C1698       C  0.30562949  0.89327261  0.47325891     0.10200
S1699       S  0.33469370  0.98144038  0.41663708    -0.33200
S1700       S  0.29645438  0.85917687  0.49498567    -0.33200
H1701       H  0.26804242  0.85383176  0.50039994     0.28200
H1702       H  0.35892900  0.98169617  0.39753737     0.28200
H1703       H  0.30768169  0.95989166  0.49133288     0.18800
H1704       H  0.32031242  0.87977197  0.41758992     0.18800
C1705       C  0.30964113  0.89343019  0.95630797    -0.07100
C1706       C  0.33487684  0.91724564  0.96949055    -0.18200
C1707       C  0.34865075  0.91812360  0.00663980     0.10100
C1708       C  0.33705106  0.89484354  0.03229798    -0.07000
C1709       C  0.31434976  0.86944174  0.01618659    -0.18200
C1710       C  0.30061875  0.86846278  0.97884266     0.15000
S1711       S  0.37899364  0.95077653  0.02159659    -0.33200
S1712       S  0.26982984  0.83600500  0.96466619    -0.33200
H1713       H  0.27922812  0.83409457  0.92438861     0.28200
H1714       H  0.39427058  0.93634354  0.03581514     0.28200
H1715       H  0.34316214  0.93627390  0.95186544     0.18800
H1716       H  0.30545221  0.85092435  0.03484504     0.18800
C1717       C  0.27215753  0.97796671  0.31669715    -0.07100
C1718       C  0.27574294  0.47925933  0.36144219    -0.18200
C1719       C  0.27573605  0.50192741  0.38751760     0.10100
C1720       C  0.26998971  0.52358059  0.37039875    -0.07000
C1721       C  0.25914268  0.51858684  0.32978524    -0.18200
C1722       C  0.26558515  0.99863409  0.29901874     0.10200
S1723       S  0.28484076  0.50326257  0.44126598    -0.33200
S1724       S  0.25753442  0.99715932  0.24495855    -0.33200
H1725       H  0.24711005  0.96709362  0.23933988     0.28200
H1726       H  0.28233898  0.47501542  0.44156191     0.28200
H1727       H  0.28331735  0.46458011  0.37309469     0.18800
H1728       H  0.25270658  0.53365568  0.31659739     0.18800
C1729       C  0.38958379  0.81421377  0.45866124    -0.07100
C1730       C  0.36407667  0.80255503  0.47984348    -0.18200
C1731       C  0.36059711  0.81562789  0.51737229     0.10100
C1732       C  0.38379487  0.83960292  0.53646096    -0.07000
C1733       C  0.40765958  0.85358495  0.51254595    -0.18200
C1734       C  0.41023516  0.84190619  0.47320704     0.10200
S1735       S  0.32617276  0.80014798  0.54021899    -0.33200
S1736       S  0.43996850  0.86300233  0.44208349    -0.33200
H1737       H  0.44926147  0.88870150  0.46693051     0.28200
H1738       H  0.32961055  0.82555877  0.56284084     0.28200
H1739       H  0.34715324  0.78256099  0.46814690     0.18800
H1740       H  0.42509543  0.87260626  0.52565662     0.18800
C1741       C  0.17608724  0.62881383  0.99182330    -0.07100
C1742       C  0.14805320  0.60973161  0.98071579    -0.18200
C1743       C  0.13634320  0.60967282  0.94200128     0.10100
C1744       C  0.15309211  0.62913364  0.91304955    -0.07000
C1745       C  0.17944377  0.65110594  0.92698785    -0.18200
C1746       C  0.19123530  0.65087932  0.96541075     0.10200
S1747       S  0.10059597  0.58389287  0.93009498    -0.33200
S1748       S  0.22666949  0.67746705  0.97671811    -0.33200
H1749       H  0.23673983  0.65738445  0.98671495     0.28200
H1750       H  0.09692415  0.56704172  0.96409536     0.28200
H1751       H  0.13570332  0.59366593  0.00186387     0.18800
H1752       H  0.19231271  0.66724231  0.90624212     0.18800
C1753       C  0.07598025  0.84681298  0.04175662    -0.07100
C1754       C  0.09623437  0.86006045  0.01156754    -0.18200
C1755       C  0.09340511  0.84814993  0.97069195     0.10100
C1756       C  0.06956357  0.82219756  0.95916205    -0.07000
C1757       C  0.04999590  0.80847639  0.98982156    -0.18200
C1758       C  0.05312742  0.82007477  0.03054731     0.10200
S1759       S  0.11939788  0.86763879  0.93335136    -0.33200
S1760       S  0.02764405  0.79900594  0.06695808    -0.33200
H1761       H  0.04795901  0.80401141  0.09789865     0.28200
H1762       H  0.13901119  0.88796245  0.96142719     0.28200
H1763       H  0.11383934  0.88050526  0.01963186     0.18800
H1764       H  0.03203642  0.78819419  0.98209426     0.18800
C1765       C  0.13635761  0.92091526  0.48271063    -0.07100
C1766       C  0.12158521  0.93826432  0.48096454    -0.18200
C1767       C  0.11048084  0.94240120  0.44361698     0.10100
C1768       C  0.11422051  0.92913777  0.40617569    -0.07000
C1769       C  0.12763615  0.91066987  0.40850556    -0.18200
C1770       C  0.13841046  0.90632657  0.44563412     0.10200
S1771       S  0.09356600  0.96628490  0.44581525    -0.33200
S1772       S  0.15755732  0.88460081  0.44258989    -0.33200
H1773       H  0.14490020  0.86954821  0.47750520     0.28200
H1774       H  0.10060455  0.97598475  0.40599021     0.28200
H1775       H  0.12004696  0.95009821  0.50877829     0.18800
H1776       H  0.13090119  0.90026380  0.38045852     0.18800
C1777       C  0.51611259  0.83215557  0.35184956    -0.07100
C1778       C  0.50022407  0.80437404  0.33440596    -0.18200
C1779       C  0.47348869  0.78706443  0.34962702     0.10100
C1780       C  0.46262848  0.79826525  0.38274156    -0.07000
C1781       C  0.48115499  0.82368926  0.40455446    -0.18200
C1782       C  0.50752727  0.84088456  0.38913445     0.10200
S1783       S  0.45359013  0.75183761  0.32477348    -0.33200
S1784       S  0.03190376  0.88251839  0.41310178    -0.33200
H1785       H  0.05812612  0.88413008  0.39999324     0.28200
H1786       H  0.47634507  0.75003574  0.30354922     0.28200
H1787       H  0.50741372  0.79742251  0.30633646     0.18800
H1788       H  0.47440508  0.83159825  0.43212447     0.18800
C1789       C  0.15338026  0.49396120  0.08490647    -0.07100
C1790       C  0.18141072  0.51060884  0.09745664    -0.18200
C1791       C  0.19575418  0.53911211  0.08665574     0.10100
C1792       C  0.18143982  0.55131864  0.06348936    -0.07000
C1793       C  0.15472178  0.53323671  0.04655501    -0.18200
C1794       C  0.14076267  0.50466240  0.05661791     0.10200
S1795       S  0.23172025  0.55871631  0.10464433    -0.33200
S1796       S  0.11942573  0.98342776  0.03137591    -0.33200
H1797       H  0.11703551  0.95729159  0.04564660     0.28200
H1798       H  0.24091549  0.57441793  0.06912958     0.28200
H1799       H  0.19133673  0.50226444  0.11874168     0.18800
H1800       H  0.14370464  0.54173041  0.02745604     0.18800
C1801       C  0.37470310  0.80091307  0.98848676    -0.07100
C1802       C  0.37041803  0.82574748  0.98404590    -0.18200
C1803       C  0.37783438  0.84098930  0.94782521     0.10100
C1804       C  0.38995381  0.83139857  0.91476613    -0.07000
C1805       C  0.39386907  0.80639346  0.91904805    -0.18200
C1806       C  0.38675899  0.79135704  0.95526700     0.10200
S1807       S  0.37132751  0.87243337  0.94608326    -0.33200
S1808       S  0.39482373  0.76083067  0.95756655    -0.33200
H1809       H  0.37781870  0.74854184  0.99132693     0.28200
H1810       H  0.38962433  0.88518062  0.91383436     0.28200
H1811       H  0.36254368  0.83423704  0.00992882     0.18800
H1812       H  0.40237004  0.79827062  0.89353402     0.18800
C1813       C  0.42980202  0.87034575  0.16801228    -0.07100
C1814       C  0.44097117  0.87667874  0.12840231    -0.18200
C1815       C  0.44163450  0.85462979  0.10201616     0.10100
C1816       C  0.42880093  0.82629098  0.11524515    -0.07000
C1817       C  0.42836594  0.82305089  0.15781917    -0.18200
C1818       C  0.42913549  0.84539450  0.18483226     0.10200
S1819       S  0.45451007  0.86277683  0.05054035    -0.33200
S1820       S  0.42583549  0.83969586  0.23910436    -0.33200
H1821       H  0.43672235  0.86916562  0.25110347     0.28200
H1822       H  0.45696545  0.83685483  0.04248505     0.28200
H1823       H  0.44526776  0.89717784  0.11606272     0.18800
H1824       H  0.42228227  0.80197369  0.16944944     0.18800
C1825       C  0.51531417  0.48734791  0.24125724     0.79300
N1826       N  0.53133897  0.01698780  0.23155328    -0.79000
C1827       C  0.51570036  0.03148706  0.22293032     0.81700
N1828       N  0.98489916  0.01659018  0.22500431    -0.79000
C1829       C  0.97075541  0.48811584  0.22928482     0.81800
N1830       N  0.98678837  0.47372151  0.23743486    -0.80700
C1831       C  0.65894596  0.34427173  0.19220242     0.79300
N1832       N  0.64684886  0.31525391  0.19375947    -0.79000
C1833       C  0.66272463  0.30078531  0.19887280     0.81700
N1834       N  0.69129082  0.31576350  0.20340279    -0.79000
C1835       C  0.70367742  0.34505987  0.20204169     0.81800
N1836       N  0.68738072  0.35917940  0.19653759    -0.80700
C1837       C  0.88207547  0.29592084  0.03306696     0.79300
N1838       N  0.85930316  0.27601509  0.05283999    -0.79000
C1839       C  0.86147590  0.27349869  0.09436059     0.81700
N1840       N  0.88580993  0.29060115  0.11475411    -0.79000
C1841       C  0.90822995  0.31001848  0.09530361     0.81800
N1842       N  0.90580993  0.31262499  0.05485658    -0.80700
Zr1843     Zr  0.62175761  0.41073906  0.15601631     2.17500
O1844       O  0.66575271  0.42342978  0.11868888    -0.52300
O1845       O  0.60046037  0.37991986  0.09400647    -0.75500
O1846       O  0.64566852  0.38013068  0.17031540    -0.82300
O1847       O  0.61859393  0.48080624  0.13255777    -0.84000
O1848       O  0.62109679  0.35059431  0.22024178    -0.79600
O1849       O  0.64367261  0.45468020  0.11920253    -0.91300
O1850       O  0.55291910  0.35952165  0.10019782    -0.77200
O1851       O  0.58262868  0.36936888  0.17797766    -0.86700
O1852       O  0.58021217  0.41732170  0.14302053    -0.86400
O1853       O  0.63097778  0.41034165  0.22816900    -0.73200
O1854       O  0.62638027  0.45376532  0.19496388    -0.85300
Zr1855     Zr  0.55571162  0.41992550  0.28140529     2.26400
Zr1856     Zr  0.59014711  0.36954020  0.24994119     2.06300
Zr1857     Zr  0.58385306  0.45881548  0.18410966     2.10000
Zr1858     Zr  0.54167922  0.37651119  0.16670560     1.78800
O1859       O  0.60262104  0.51070092  0.18592598    -0.94100
O1860       O  0.52066891  0.32410306  0.16581427    -0.41900
O1861       O  0.54498479  0.41808612  0.20876129    -0.78500
O1862       O  0.54821747  0.37627166  0.23940566    -0.97200
O1863       O  0.59655130  0.41238088  0.28703803    -0.90500
O1864       O  0.59430870  0.46124518  0.25674355    -0.93400
C1865       C  0.57549591  0.36315184  0.08046807     1.00400
C1866       C  0.63835237  0.47640319  0.11469428     1.13300
C1867       C  0.64073084  0.35923416  0.19371565     1.04100
O1868       O  0.56559596  0.31769225  0.23961664    -0.95500
O1869       O  0.55909436  0.34882425  0.30605735    -0.91300
O1870       O  0.53489390  0.37598902  0.31863735    -0.84400
C1871       C  0.54020925  0.35434167  0.32457636     1.10700
O1872       O  0.67660517  0.48987134  0.23491328    -0.97500
Zr1873     Zr  0.63547104  0.45322325  0.26640200     1.88900
O1874       O  0.58227331  0.43251566  0.34997877    -0.74100
O1875       O  0.61910001  0.36944650  0.30761222    -0.53400
O1876       O  0.67791353  0.44889036  0.28665605    -0.98100
O1877       O  0.64713154  0.49740772  0.30849719    -0.55300
O1878       O  0.62696669  0.43863492  0.33675392    -0.74700
C1879       C  0.60647439  0.43380592  0.36167461     0.97700
O1880       O  0.51728180  0.41541232  0.32784143    -0.63500
O1881       O  0.55312679  0.45462263  0.12601822    -0.58300
O1882       O  0.53115438  0.45208019  0.26757641    -0.95000
O1883       O  0.55158768  0.47734833  0.21193137    -0.93400
O1884       O  0.51688958  0.39183107  0.11797516    -0.93700
O1885       O  0.49149369  0.35444668  0.18024159    -0.92500
C1886       C  0.53360355  0.47101044  0.24095626     1.16500
H1887       H  0.57825385  0.41952170  0.11411200     0.32500
H1888       H  0.53166738  0.35988874  0.24767897     0.43300
H1889       H  0.59573287  0.47891292  0.27054979     0.36800
H1890       H  0.64806773  0.40831068  0.23307707     0.33300
H1891       H  0.53685044  0.31910604  0.16362285     0.25100
H1892       H  0.61958799  0.35047197  0.30486700     0.31100
H1893       H  0.68700853  0.46455747  0.30812615     0.37000
H1894       H  0.50714784  0.40112553  0.13525920     0.31400
H1895       H  0.54457660  0.46799487  0.13328072     0.30300
H1896       H  0.59598371  0.01311165  0.15928841     0.32000
H1897       H  0.66309402  0.49930027  0.32619633     0.30900
H1898       H  0.98775190  0.35678791  0.20712332     0.34900
H1899       H  0.52217462  0.43494285  0.34036532     0.27700
H1900       H  0.66376440  0.40561980  0.10300290     0.31900
H1901       H  0.67064728  0.50490099  0.22808896     0.34800
H1902       H  0.56604871  0.46360139  0.10324471     0.27400
H1903       H  0.99964755  0.41183151  0.31049113     0.40200
H1904       H  0.57438388  0.31025909  0.25977192     0.30300
H1905       H  0.51361153  0.31914168  0.19400595     0.37900
H1906       H  0.63116589  0.49285360  0.32764947     0.29800
H1907       H  0.63847945  0.38340775  0.30113640     0.29800
H1908       H  0.68042177  0.42710609  0.13994030     0.30100
C1909       C  0.68956459  0.12138748  0.03160497     0.79300
N1910       N  0.70857781  0.14175869  0.05890556    -0.79000
C1911       C  0.72188493  0.13316953  0.08772207     0.81700
N1912       N  0.71580216  0.10497037  0.08912385    -0.79000
C1913       C  0.69770702  0.08501392  0.06197531     0.81800
N1914       N  0.68474490  0.09351681  0.03373478    -0.80700
C1915       C  0.90095873  0.29491153  0.43331854     0.79300
N1916       N  0.88185013  0.27470302  0.40619281    -0.79000
C1917       C  0.89104474  0.26111455  0.37587448     0.81700
N1918       N  0.91890822  0.26784447  0.37330426    -0.79000
C1919       C  0.93770972  0.28674505  0.40102187     0.81800
N1920       N  0.92842402  0.30002050  0.43064760    -0.80700
Zr1921     Zr  0.80509079  0.19125826  0.31594932     2.17500
O1922       O  0.79540243  0.22261705  0.36632804    -0.52300
O1923       O  0.80716819  0.15474330  0.35972115    -0.75500
O1924       O  0.75939240  0.16370609  0.34796697    -0.82300
O1925       O  0.88203735  0.23707080  0.30874559    -0.84000
O1926       O  0.73144013  0.14651617  0.29093768    -0.79600
O1927       O  0.84601911  0.22536101  0.35454632    -0.91300
O1928       O  0.79808420  0.11744987  0.31274253    -0.77200
O1929       O  0.77564441  0.15092032  0.27295856    -0.86700
O1930       O  0.83536817  0.17213619  0.28402274    -0.86400
O1931       O  0.78271384  0.20894880  0.26700581    -0.73200
O1932       O  0.83738436  0.22742037  0.27276856    -0.85300
Zr1933     Zr  0.81300211  0.18290266  0.15052862     2.26400
Zr1934     Zr  0.75282731  0.16753701  0.22579157     2.06300
Zr1935     Zr  0.86723516  0.20811887  0.24182387     2.10000
Zr1936     Zr  0.80479209  0.13144509  0.24197390     1.78800
O1937       O  0.91023252  0.25117162  0.23010577    -0.94100
O1938       O  0.76251978  0.08603043  0.23923494    -0.41900
O1939       O  0.83657725  0.16705622  0.19973244    -0.78500
O1940       O  0.78078169  0.14617809  0.19227621    -0.97200
O1941       O  0.78403821  0.20323122  0.18211922    -0.90500
O1942       O  0.84499064  0.22372049  0.19205243    -0.93400
C1943       C  0.80123391  0.12819227  0.35003932     1.00400
C1944       C  0.87175274  0.23991497  0.34443088     1.13300
C1945       C  0.73588044  0.14711764  0.33009037     1.04100
O1946       O  0.70687707  0.12738801  0.21663204    -0.95500
O1947       O  0.73260664  0.15108231  0.15662819    -0.91300
O1948       O  0.76840926  0.16420210  0.11075009    -0.84400
C1949       C  0.74205529  0.15231657  0.11977648     1.10700
O1950       O  0.80804736  0.27278060  0.27881504    -0.97500
Zr1951     Zr  0.81574101  0.24393857  0.22249221     1.88900
O1952       O  0.83100102  0.22551475  0.10964971    -0.74100
O1953       O  0.72743981  0.19743448  0.23142622    -0.53400
O1954       O  0.78230743  0.26098635  0.19817755    -0.98100
O1955       O  0.85636664  0.28984094  0.23752268    -0.55300
O1956       O  0.83494984  0.26232691  0.15503603    -0.74700
C1957       C  0.83942141  0.25239133  0.11966550     0.97700
O1958       O  0.81098998  0.15160631  0.09008443    -0.63500
O1959       O  0.89672027  0.18710894  0.26873260    -0.58300
O1960       O  0.85447885  0.17883061  0.12484754    -0.95000
O1961       O  0.88791900  0.20042899  0.17539107    -0.93400
O1962       O  0.84357570  0.11859336  0.25322448    -0.93700
O1963       O  0.80537149  0.09689075  0.18809155    -0.92500
C1964       C  0.87984227  0.18889563  0.13847797     1.16500
H1965       H  0.84565661  0.16713029  0.30401334     0.32500
H1966       H  0.76895077  0.12953523  0.17500726     0.43300
H1967       H  0.86053837  0.23690912  0.17673459     0.36800
H1968       H  0.77174656  0.21721277  0.28202354     0.33300
H1969       H  0.76665215  0.07377591  0.25782047     0.25100
H1970       H  0.72427164  0.19959356  0.26125773     0.31100
H1971       H  0.78527780  0.26245151  0.16812348     0.37000
H1972       H  0.83582859  0.10238533  0.27158101     0.31400
H1973       H  0.91511341  0.19709635  0.25513334     0.30300
H1974       H  0.90384816  0.26646094  0.22744744     0.32000
H1975       H  0.86978375  0.29158647  0.21500697     0.30900
H1976       H  0.82121418  0.10821429  0.17018237     0.34900
H1977       H  0.79421495  0.13319201  0.09356461     0.27700
H1978       H  0.79231465  0.21291739  0.39254617     0.31900
H1979       H  0.81658001  0.26887255  0.30327240     0.34800
H1980       H  0.90043296  0.19452977  0.29786107     0.27400
H1981       H  0.80646553  0.16004694  0.06625337     0.40200
H1982       H  0.71053410  0.11062522  0.22211643     0.30300
H1983       H  0.74803963  0.09044108  0.25376537     0.37900
H1984       H  0.86547727  0.28688174  0.26211509     0.29800
H1985       H  0.74109464  0.21675026  0.22390656     0.29800
H1986       H  0.77663787  0.22108969  0.35853120     0.30100
Zr1987     Zr  0.87886858  0.43344461  0.16222977     2.17500
O1988       O  0.90459432  0.47006767  0.11405489    -0.52300
O1989       O  0.90746233  0.40739154  0.15772812    -0.75500
O1990       O  0.92718752  0.46384859  0.19033381    -0.82300
O1991       O  0.81617750  0.39126835  0.08706711    -0.84000
O1992       O  0.92456750  0.46789988  0.26040941    -0.79600
O1993       O  0.86395493  0.41605297  0.08823674    -0.91300
O1994       O  0.89050250  0.37393782  0.20548119    -0.77200
O1995       O  0.88061365  0.41621024  0.22833665    -0.86700
O1996       O  0.84225771  0.38544132  0.16333814    -0.86400
O1997       O  0.87275969  0.46569019  0.21425760    -0.73200
O1998       O  0.83517513  0.43700260  0.15280283    -0.85300
Zr1999     Zr  0.79323518  0.40298441  0.26785189     2.26400
Zr2000     Zr  0.87386480  0.44700871  0.28044933     2.06300
Zr2001     Zr  0.79852266  0.38886106  0.15509123     2.10000
Zr2002     Zr  0.84480995  0.36882809  0.22909791     1.78800
O2003       O  0.77007626  0.39956925  0.10639980    -0.94100
O2004       O  0.86737975  0.36100063  0.28903134    -0.41900
O2005       O  0.80026575  0.37017854  0.21941171    -0.78500
O2006       O  0.83659715  0.39896722  0.28051845    -0.97200
O2007       O  0.83058609  0.45043189  0.26943783    -0.90500
O2008       O  0.79120354  0.42137515  0.20352140    -0.93400
C2009       C  0.90881146  0.38781804  0.17885319     1.00400
C2010       C  0.83991807  0.40140953  0.06902049     1.13300
C2011       C  0.93880205  0.47227648  0.22654941     1.04100
O2012       O  0.90172830  0.43643253  0.33025282    -0.95500
O2013       O  0.85070350  0.43980032  0.34949139    -0.91300
O2014       O  0.80373338  0.41192172  0.33973923    -0.84400
C2015       C  0.82524124  0.42592425  0.36298480     1.10700
O2016       O  0.84833357  0.50236119  0.15106317    -0.97500
Zr2017     Zr  0.82879043  0.46843656  0.20478731     1.88900
O2018       O  0.77662286  0.43807211  0.29283845    -0.74100
O2019       O  0.89057462  0.49678076  0.30666646    -0.53400
O2020       O  0.85770578  0.51729850  0.23200690    -0.98100
O2021       O  0.79060107  0.47331184  0.16947186    -0.55300
O2022       O  0.80168988  0.47842391  0.25883740    -0.74700
C2023       C  0.78432626  0.46465699  0.28654684     0.97700
O2024       O  0.76072099  0.36389214  0.30786336    -0.63500
O2025       O  0.78269108  0.33943513  0.12748715    -0.58300
O2026       O  0.74518024  0.37448343  0.24078013    -0.95000
O2027       O  0.74904870  0.36306277  0.17315252    -0.93400
O2028       O  0.83240564  0.32419670  0.18739754    -0.93700
O2029       O  0.81270218  0.32667263  0.26345618    -0.92500
C2030       C  0.73459083  0.36166758  0.20575625     1.16500
H2031       H  0.84471623  0.37301734  0.14180759     0.32500
H2032       H  0.83601487  0.39084104  0.30667691     0.43300
H2033       H  0.77325468  0.42181305  0.19920513     0.36800
H2034       H  0.88805214  0.48467173  0.21287851     0.33300
H2035       H  0.86954367  0.34320244  0.28155696     0.25100
H2036       H  0.87880113  0.49600438  0.33101959     0.31100
H2037       H  0.85437089  0.01847803  0.26502349     0.37000
H2038       H  0.85029142  0.32569050  0.17508600     0.31400
H2039       H  0.77313498  0.32741090  0.15064935     0.30300
H2040       H  0.77378683  0.41975720  0.11371515     0.32000
H2041       H  0.79563346  0.96991814  0.14461477     0.30900
H2042       H  0.80586017  0.33443741  0.28748284     0.34900
H2043       H  0.77271219  0.35765997  0.32402848     0.27700
H2044       H  0.92294924  0.46918458  0.11032798     0.31900
H2045       H  0.85556389  0.98756932  0.13409213     0.34800
H2046       H  0.76728772  0.33642463  0.10786548     0.27400
H2047       H  0.75253355  0.37294785  0.32846879     0.40200
H2048       H  0.90991776  0.45395853  0.34893117     0.30300
H2049       H  0.88684505  0.37649965  0.28942294     0.37900
H2050       H  0.79513790  0.49402370  0.17298301     0.29800
H2051       H  0.90955494  0.50180409  0.31826857     0.29800
H2052       H  0.90920579  0.48859944  0.12971184     0.30100
C2053       C  0.80472223  0.09196337  0.44604890     0.79300
N2054       N  0.79242022  0.06412733  0.43019313    -0.79000
C2055       C  0.78223869  0.05740047  0.39093110     0.81700
N2056       N  0.78483666  0.07909140  0.36751124    -0.79000
C2057       C  0.79707865  0.10698801  0.38156987     0.81800
N2058       N  0.80721806  0.11369197  0.42129851    -0.80700
C2059       C  0.68406711  0.10262217  0.40930705     0.79300
N2060       N  0.70715360  0.12513788  0.39377105    -0.79000
C2061       C  0.71296490  0.12420028  0.35241194     0.81700
N2062       N  0.69621511  0.10109210  0.32820674    -0.79000
C2063       C  0.67370241  0.07900282  0.34288711     0.81800
N2064       N  0.66769060  0.08024329  0.38319795    -0.80700
Zr2065     Zr  0.57543904  0.12975681  0.26775213     2.17500
O2066       O  0.54490830  0.10841079  0.32536950    -0.52300
O2067       O  0.60097818  0.10081903  0.27181839    -0.75500
O2068       O  0.54325563  0.07916583  0.25054236    -0.82300
O2069       O  0.62308929  0.19985923  0.33093180    -0.84000
O2070       O  0.53113682  0.07417239  0.18247209    -0.79600
O2071       O  0.59148571  0.15364692  0.33792881    -0.91300
O2072       O  0.62180151  0.10257026  0.21018243    -0.77200
O2073       O  0.58532908  0.11798238  0.19904140    -0.86700
O2074       O  0.62325397  0.16228090  0.25608049    -0.86400
O2075       O  0.54119967  0.13335968  0.22244864    -0.73200
O2076       O  0.57807951  0.17725567  0.27530442    -0.85300
Zr2077     Zr  0.60106349  0.20458992  0.15196590     2.26400
Zr2078     Zr  0.55298072  0.12302832  0.15293559     2.06300
Zr2079     Zr  0.62585248  0.20987299  0.26009702     2.10000
Zr2080     Zr  0.63264537  0.15026770  0.18771529     1.78800
O2081       O  0.62820054  0.24804604  0.30969848    -0.94100
O2082       O  0.63772842  0.12405549  0.12572056    -0.41900
O2083       O  0.63602301  0.19851429  0.19187135    -0.78500
O2084       O  0.60139926  0.15765702  0.14189158    -0.97200
O2085       O  0.55390719  0.16976902  0.16354906    -0.90500
O2086       O  0.59106847  0.21541489  0.22022704    -0.93400
C2087       C  0.61286923  0.09097799  0.24443487     1.00400
C2088       C  0.60858210  0.17901429  0.35309554     1.13300
C2089       C  0.53057305  0.06365701  0.21808388     1.04100
O2090       O  0.54724630  0.08390116  0.10287545    -0.95500
O2091       O  0.56436863  0.14041195  0.08133703    -0.91300
O2092       O  0.56622932  0.18294223  0.09868525    -0.84400
C2093       C  0.56907805  0.16592684  0.07145498     1.10700
O2094       O  0.51134058  0.15674199  0.28578107    -0.97500
Zr2095     Zr  0.54404045  0.18106572  0.23173120     1.88900
O2096       O  0.57299789  0.23031226  0.13946211    -0.74100
O2097       O  0.50472445  0.11340848  0.13501543    -0.53400
O2098       O  0.99292348  0.16033151  0.21271600    -0.98100
O2099       O  0.54719022  0.21948857  0.28159336    -0.55300
O2100       O  0.53692376  0.21188990  0.18437526    -0.74700
C2101       C  0.54927915  0.22753513  0.15439906     0.97700
O2102       O  0.63158797  0.22018763  0.09246100    -0.63500
O2103       O  0.67499398  0.22063931  0.27370367    -0.58300
O2104       O  0.63170253  0.25516765  0.16984473    -0.95000
O2105       O  0.65089017  0.25763938  0.23298770    -0.93400
O2106       O  0.67272409  0.15816514  0.23158402    -0.93700
O2107       O  0.67828414  0.17375295  0.15490339    -0.92500
C2108       C  0.64811307  0.26915316  0.20036643     1.16500
H2109       H  0.63534913  0.16033431  0.27654549     0.32500
H2110       H  0.60803918  0.15561680  0.11461208     0.43300
H2111       H  0.59248541  0.23469272  0.22376909     0.36800
H2112       H  0.52246815  0.11943881  0.22907863     0.33300
H2113       H  0.65146602  0.11668391  0.13339721     0.25100
H2114       H  0.49512056  0.11214662  0.16170263     0.31100
H2115       H  0.99296294  0.15318389  0.18382235     0.37000
H2116       H  0.66684578  0.14088093  0.24770197     0.31400
H2117       H  0.67448982  0.20815436  0.29597508     0.30300
H2118       H  0.61354682  0.25367477  0.30031256     0.32000
H2119       H  0.05612540  0.23383408  0.27951438     0.30900
H2120       H  0.67586906  0.18680644  0.13583460     0.34900
H2121       H  0.64363015  0.24095738  0.09804738     0.27700
H2122       H  0.54809635  0.09140567  0.33112774     0.31900
H2123       H  0.01977997  0.14873488  0.30766085     0.34800
H2124       H  0.68092748  0.21260852  0.24902726     0.27400
H2125       H  0.64460402  0.21101420  0.09442783     0.40200
H2126       H  0.56659405  0.08832108  0.09337775     0.30300
H2127       H  0.61953348  0.10669176  0.12282063     0.37900
H2128       H  0.55667937  0.23745736  0.26705167     0.29800
H2129       H  0.50611599  0.13143705  0.12397337     0.29800
H2130       H  0.52543189  0.10045244  0.31412411     0.30100
C2131       C  0.91604975  0.16915563  0.05012512     0.79300
N2132       N  0.94275491  0.18963111  0.05746799    -0.79000
C2133       C  0.94905706  0.20964382  0.08925801     0.81700
N2134       N  0.92825965  0.20844847  0.11520305    -0.79000
C2135       C  0.90142207  0.18834530  0.10914053     0.81800
N2136       N  0.89509955  0.16865306  0.07614277    -0.80700
C2137       C  0.96812796  0.03346725  0.75406985     0.79300
N2138       N  0.99642743  0.04614002  0.74564104    -0.79000
C2139       C  0.50977416  0.02656667  0.73410101     0.81700
N2140       N  0.99690517  0.00084462  0.73402511    -0.79000
C2141       C  0.96645674  0.48583892  0.74202498     0.81800
N2142       N  0.95225448  0.50248747  0.75116442    -0.80700
Zr2143     Zr  0.60292951  0.08727398  0.78437228     2.17500
O2144       O  0.57572830  0.04974822  0.83044581    -0.52300
O2145       O  0.57538399  0.11511360  0.79076298    -0.75500
O2146       O  0.61954126  0.10454048  0.85704730    -0.82300
O2147       O  0.55348554  0.04324615  0.69553198    -0.84000
O2148       O  0.66678513  0.13195218  0.85421878    -0.79600
O2149       O  0.55445677  0.05508865  0.76442354    -0.91300
O2150       O  0.59250307  0.14933149  0.74416281    -0.77200
O2151       O  0.63890753  0.13498110  0.77923410    -0.86700
O2152       O  0.59774891  0.10079322  0.71678931    -0.86400
O2153       O  0.64686407  0.08367917  0.79160398    -0.73200
O2154       O  0.60774188  0.05298754  0.73470345    -0.85300
Zr2155     Zr  0.68375893  0.11322209  0.67237291     2.26400
Zr2156     Zr  0.68291876  0.13168986  0.78512175     2.06300
Zr2157     Zr  0.60255662  0.06732260  0.66736368     2.10000
Zr2158     Zr  0.63356371  0.14822742  0.71219331     1.78800
O2159       O  0.58834612  0.01709916  0.64530123    -0.94100
O2160       O  0.65506077  0.19331976  0.75376962    -0.41900
O2161       O  0.63920929  0.11511974  0.66310034    -0.78500
O2162       O  0.67843805  0.14755254  0.71963232    -0.97200
O2163       O  0.68909964  0.09800388  0.73755610    -0.90500
O2164       O  0.64687146  0.06541338  0.67484469    -0.93400
C2165       C  0.57466188  0.13580595  0.77137934     1.00400
C2166       C  0.54128963  0.04213779  0.73088490     1.13300
C2167       C  0.64391130  0.12043065  0.87427503     1.04100
O2168       O  0.70451987  0.18116240  0.81372294    -0.95500
O2169       O  0.73089252  0.15930404  0.76193037    -0.91300
O2170       O  0.73239670  0.14153354  0.69681103    -0.84400
C2171       C  0.74415621  0.15752808  0.72929267     1.10700
O2172       O  0.63378989  0.01727546  0.79517780    -0.97500
Zr2173     Zr  0.65229613  0.05080444  0.74078777     1.88900
O2174       O  0.70254559  0.07926993  0.65007524    -0.74100
O2175       O  0.71346152  0.11920392  0.82740709    -0.53400
O2176       O  0.68860592  0.04736729  0.78267113    -0.98100
O2177       O  0.62411257  0.00194049  0.71252788    -0.55300
O2178       O  0.68396391  0.04217844  0.69234033    -0.74700
C2179       C  0.69897263  0.05456899  0.66154283     0.97700
O2180       O  0.71072852  0.15282452  0.62873978    -0.63500
O2181       O  0.56978105  0.07173275  0.61899466    -0.58300
O2182       O  0.67070155  0.10415317  0.60145701    -0.95000
O2183       O  0.62304597  0.07720902  0.59626124    -0.93400
O2184       O  0.60574026  0.15722382  0.66048299    -0.93700
O2185       O  0.65795670  0.18371940  0.66208288    -0.92500
C2186       C  0.64790249  0.09117198  0.58053160     1.16500
H2187       H  0.57933497  0.10014852  0.71246910     0.32500
H2188       H  0.69333600  0.16646873  0.71610307     0.43300
H2189       H  0.64815212  0.05271012  0.65279396     0.36800
H2190       H  0.64805078  0.07728484  0.81853816     0.33300
H2191       H  0.64638830  0.18907324  0.78125644     0.25100
H2192       H  0.72689641  0.13774051  0.84075150     0.31100
H2193       H  0.69785409  0.06626261  0.79798493     0.37000
H2194       H  0.60278738  0.14238513  0.63800916     0.31400
H2195       H  0.55848181  0.05190448  0.60737709     0.30300
H2196       H  0.58318936  0.01576085  0.61583833     0.32000
H2197       H  0.63382149  0.49174681  0.73330327     0.30900
H2198       H  0.67824783  0.18908625  0.66648900     0.34900
H2199       H  0.69651410  0.15717423  0.61476398     0.27700
H2200       H  0.56753934  0.05893341  0.85082427     0.31900
H2201       H  0.61362870  0.01333400  0.79693912     0.34800
H2202       H  0.55640571  0.07634537  0.63617452     0.27400
H2203       H  0.72046656  0.16992720  0.64776047     0.40200
H2204       H  0.68899551  0.18432003  0.82718709     0.30300
H2205       H  0.67483973  0.19657970  0.75805784     0.37900
H2206       H  0.62753517  0.00276742  0.68252285     0.29800
H2207       H  0.70154669  0.10852192  0.85014356     0.29800
H2208       H  0.58992914  0.04633113  0.84603380     0.30100
C2209       C  0.60031134  0.21574413  0.91261934     0.79300
N2210       N  0.62335812  0.23490991  0.89232140    -0.79000
C2211       C  0.62016902  0.24038118  0.85220978     0.81700
N2212       N  0.59437099  0.22692475  0.83379137    -0.79000
C2213       C  0.57157192  0.20846241  0.85394532     0.81800
N2214       N  0.57501167  0.20305167  0.89307981    -0.80700
C2215       C  0.59209999  0.22103151  0.51324852     0.79300
N2216       N  0.56404981  0.20693073  0.51924886    -0.79000
C2217       C  0.55155552  0.21465940  0.55098641     0.81700
N2218       N  0.56704119  0.23695798  0.57741602    -0.79000
C2219       C  0.59507655  0.25184479  0.57204964     0.81800
N2220       N  0.60790655  0.24370760  0.53998312    -0.80700
Zr2221     Zr  0.89033620  0.14005870  0.69642217     2.17500
O2222       O  0.90358160  0.19108665  0.69170337    -0.52300
O2223       O  0.86557453  0.12506146  0.63041377    -0.75500
O2224       O  0.92742543  0.15914166  0.64759873    -0.82300
O2225       O  0.82507878  0.13098518  0.75686997    -0.84000
O2226       O  0.95748878  0.13932062  0.66047716    -0.79600
O2227       O  0.85597878  0.15892235  0.71034491    -0.91300
O2228       O  0.84813849  0.07656491  0.62698476    -0.77200
O2229       O  0.90260389  0.10194545  0.67501960    -0.86700
O2230       O  0.84977855  0.09690805  0.70769925    -0.86400
O2231       O  0.93166790  0.14737713  0.73589077    -0.73200
O2232       O  0.88290919  0.14212209  0.76889489    -0.85300
Zr2233     Zr  0.89625882  0.06689445  0.80340615     2.26400
Zr2234     Zr  0.94215902  0.10746537  0.71669122     2.06300
Zr2235     Zr  0.84296294  0.09796915  0.78019288     2.10000
Zr2236     Zr  0.86246933  0.05926382  0.68821982     1.78800
O2237       O  0.83072709  0.12054792  0.84029669    -0.94100
O2238       O  0.83333228  0.02019678  0.63984896    -0.41900
O2239       O  0.85521695  0.05903201  0.76136210    -0.78500
O2240       O  0.90211019  0.06334430  0.72939679    -0.97200
O2241       O  0.93648815  0.11016526  0.79000941    -0.90500
O2242       O  0.88303147  0.10510747  0.82082902    -0.93400
C2243       C  0.85134601  0.10036605  0.61201697     1.00400
C2244       C  0.83401129  0.15183774  0.73276084     1.13300
C2245       C  0.94962560  0.15544949  0.64057569     1.04100
O2246       O  0.96061510  0.08777395  0.66021094    -0.95500
O2247       O  0.96048204  0.07349153  0.73566157    -0.91300
O2248       O  0.93058750  0.04559498  0.78312958    -0.84400
C2249       C  0.95207939  0.05197951  0.75865438     1.10700
O2250       O  0.94420690  0.19944828  0.79797108    -0.97500
Zr2251     Zr  0.92352124  0.14821100  0.80826851     1.88900
O2252       O  0.90740965  0.08739242  0.87624887    -0.74100
O2253       O  0.99019399  0.13979204  0.73738464    -0.53400
O2254       O  0.97376059  0.16525746  0.82190467    -0.98100
O2255       O  0.90616296  0.17470838  0.85657324    -0.55300
O2256       O  0.92715744  0.13618500  0.87737539    -0.74700
C2257       C  0.91724309  0.11256964  0.89533732     0.97700
O2258       O  0.89376184  0.02835103  0.84577129    -0.63500
O2259       O  0.79373871  0.06854713  0.76085149    -0.58300
O2260       O  0.84925803  0.03677740  0.82798292    -0.95000
O2261       O  0.82175506  0.06098269  0.82828106    -0.93400
O2262       O  0.82050104  0.02633296  0.72239504    -0.93700
O2263       O  0.88553409  0.03157405  0.65508421    -0.92500
C2264       C  0.82705077  0.04015638  0.83807889     1.16500
H2265       H  0.83325260  0.09546044  0.69315120     0.32500
H2266       H  0.90583863  0.04696687  0.72198390     0.43300
H2267       H  0.87647318  0.10511799  0.84863643     0.36800
H2268       H  0.94732547  0.16541529  0.72926895     0.33300
H2269       H  0.81498623  0.02121086  0.63856202     0.25100
H2270       H  0.99065372  0.15918963  0.73936352     0.31100
H2271       H  0.98314355  0.18466235  0.81119164     0.37000
H2272       H  0.80506469  0.03049345  0.71217644     0.31400
H2273       H  0.78286982  0.07491190  0.78077480     0.30300
H2274       H  0.84113221  0.14146908  0.83698388     0.32000
H2275       H  0.92130522  0.18412390  0.87762588     0.30900
H2276       H  0.89703625  0.04368692  0.63314393     0.34900
H2277       H  0.89132198  0.01184336  0.82653317     0.27700
H2278       H  0.90345393  0.19403863  0.66192326     0.31900
H2279       H  0.92955771  0.20228477  0.78260377     0.34800
H2280       H  0.79094661  0.07535416  0.73421037     0.27400
H2281       H  0.91282061  0.03495529  0.85810815     0.40200
H2282       H  0.94799565  0.08519394  0.63646150     0.30300
H2283       H  0.84155811  0.02537923  0.61225798     0.37900
H2284       H  0.89059762  0.15977129  0.87127401     0.29800
H2285       H  0.99165400  0.13537375  0.76618876     0.29800
H2286       H  0.92364434  0.20061023  0.70039078     0.30100
C2287       C  0.56153468  0.30911197  0.91350987     0.79300
N2288       N  0.53429030  0.29573406  0.89983713    -0.79000
C2289       C  0.52765013  0.28392943  0.86074894     0.81700
N2290       N  0.54884586  0.28642048  0.83462738    -0.79000
C2291       C  0.57611650  0.29976920  0.84713981     0.81800
N2292       N  0.58246319  0.31106379  0.88677119    -0.80700
Zr2293     Zr  0.67587248  0.32629454  0.63469527     2.17500
O2294       O  0.69166274  0.30491633  0.57680145    -0.52300
O2295       O  0.66561775  0.36021639  0.59448832    -0.75500
O2296       O  0.63683379  0.29091517  0.59495245    -0.82300
O2297       O  0.75059558  0.37156298  0.65653444    -0.84000
O2298       O  0.60001773  0.27474364  0.63938526    -0.79600
O2299       O  0.72076013  0.35459751  0.60140928    -0.91300
O2300       O  0.66922072  0.39510839  0.64288256    -0.77200
O2301       O  0.64163252  0.33872665  0.66888585    -0.86700
O2302       O  0.70234499  0.36755308  0.67900357    -0.86400
O2303       O  0.64838725  0.28594613  0.67648023    -0.73200
O2304       O  0.70127825  0.31008289  0.68100850    -0.85300
Zr2305     Zr  0.66903143  0.32917512  0.79959359     2.26400
Zr2306     Zr  0.61404995  0.29907939  0.70952952     2.06300
Zr2307     Zr  0.72907950  0.35199079  0.72249232     2.10000
Zr2308     Zr  0.66883628  0.37992972  0.71248819     1.78800
O2309       O  0.74671413  0.31544559  0.71693302    -0.94100
O2310       O  0.62684422  0.38843760  0.70769656    -0.41900
O2311       O  0.69766623  0.36819670  0.75809377    -0.78500
O2312       O  0.64071576  0.34123931  0.75300796    -0.97200
O2313       O  0.64051910  0.28735297  0.75775175    -0.90500
O2314       O  0.70156487  0.31442277  0.76613839    -0.93400
C2315       C  0.66681995  0.38515358  0.60520834     1.00400
C2316       C  0.74491774  0.37074701  0.61777605     1.13300
C2317       C  0.61144236  0.27431260  0.60380571     1.04100
O2318       O  0.58008860  0.31741093  0.69270180    -0.95500
O2319       O  0.59162128  0.29651467  0.77827535    -0.91300
O2320       O  0.62387076  0.31585268  0.83096899    -0.84400
C2321       C  0.59856608  0.30399087  0.81683772     1.10700
O2322       O  0.68748364  0.24550473  0.67508813    -0.97500
Zr2323     Zr  0.67274474  0.27241401  0.72628086     1.88900
O2324       O  0.65659909  0.28697286  0.84015154    -0.74100
O2325       O  0.57436689  0.25258703  0.71789187    -0.53400
O2326       O  0.63801099  0.22420673  0.70493295    -0.98100
O2327       O  0.70779109  0.26201296  0.76146049    -0.55300
O2328       O  0.64499097  0.25210047  0.78889844    -0.74700
C2329       C  0.64319331  0.26069668  0.82664597     0.97700
O2330       O  0.66996790  0.36572863  0.85136042    -0.63500
O2331       O  0.77904171  0.38529871  0.73196707    -0.58300
O2332       O  0.71292215  0.34815082  0.83985257    -0.95000
O2333       O  0.74625583  0.37115150  0.79263728    -0.93400
O2334       O  0.70561184  0.42893681  0.71216458    -0.93700
O2335       O  0.66579572  0.40861411  0.77289243    -0.92500
C2336       C  0.73804587  0.36547986  0.82992780     1.16500
H2337       H  0.71348562  0.38449072  0.66450154     0.32500
H2338       H  0.62822470  0.34740064  0.76831423     0.43300
H2339       H  0.71303743  0.31074835  0.78573293     0.36800
H2340       H  0.64002351  0.26840127  0.65943687     0.33300
H2341       H  0.63418772  0.40922595  0.70330868     0.25100
H2342       H  0.56457043  0.24633109  0.69085116     0.31100
H2343       H  0.62061118  0.22623942  0.69870728     0.37000
H2344       H  0.72186899  0.42836093  0.72643347     0.31400
H2345       H  0.78712902  0.37548413  0.74928819     0.30300
H2346       H  0.75550791  0.31669828  0.74414088     0.32000
H2347       H  0.71063927  0.24730553  0.74365623     0.30900
H2348       H  0.68283586  0.41253960  0.78954922     0.34900
H2349       H  0.68817997  0.38258643  0.84751325     0.27700
H2350       H  0.68120022  0.30588540  0.55228343     0.31900
H2351       H  0.70323402  0.26024343  0.66042879     0.34800
H2352       H  0.78845875  0.38603675  0.70522909     0.27400
H2353       H  0.65568431  0.37181306  0.84175641     0.40200
H2354       H  0.56161132  0.30209836  0.70016889     0.30300
H2355       H  0.61786407  0.37882491  0.68103067     0.37900
H2356       H  0.69797823  0.25174240  0.78588528     0.29800
H2357       H  0.58341353  0.23956611  0.72145552     0.29800
H2358       H  0.68405634  0.28420274  0.58181839     0.30100
Zr2359     Zr  0.91367781  0.38927441  0.67890341     2.17500
O2360       O  0.95295219  0.41353604  0.63322172    -0.52300
O2361       O  0.88736532  0.41632042  0.66728093    -0.75500
O2362       O  0.90017737  0.36871279  0.60572683    -0.82300
O2363       O  0.94731037  0.44086601  0.77506152    -0.84000
O2364       O  0.87396754  0.32044692  0.60827217    -0.79600
O2365       O  0.94270544  0.43978779  0.70503132    -0.91300
O2366       O  0.85348769  0.40412600  0.71589978    -0.77200
O2367       O  0.86618765  0.35297549  0.68179616    -0.86700
O2368       O  0.89624093  0.39555659  0.74552336    -0.86400
O2369       O  0.91567522  0.34377021  0.67184062    -0.73200
O2370       O  0.94426566  0.38589546  0.73081666    -0.85300
Zr2371     Zr  0.88112855  0.30847407  0.78974582     2.26400
Zr2372     Zr  0.86808945  0.30726188  0.67758613     2.06300
Zr2373     Zr  0.92522714  0.39065950  0.79738856     2.10000
Zr2374     Zr  0.84908621  0.36034416  0.74719351     1.78800
O2375       O  0.97344066  0.40930037  0.82346398    -0.94100
O2376       O  0.80707828  0.34130826  0.70340714    -0.41900
O2377       O  0.87793507  0.35378567  0.79792860    -0.78500
O2378       O  0.84926687  0.31344226  0.74213061    -0.97200
O2379       O  0.89960067  0.30261465  0.72510435    -0.90500
O2380       O  0.92848305  0.34576319  0.78863291    -0.93400
C2381       C  0.86822112  0.42032003  0.68753173     1.00400
C2382       C  0.95123131  0.45342520  0.74061306     1.13300
C2383       C  0.88593149  0.34306428  0.58838264     1.04100
O2384       O  0.82077827  0.29219403  0.64973326    -0.95500
O2385       O  0.83911455  0.25851682  0.69781691    -0.91300
O2386       O  0.84636198  0.25990600  0.76664441    -0.84400
C2387       C  0.83493857  0.24655846  0.73230326     1.10700
O2388       O  0.98331291  0.36257406  0.67265402    -0.97500
Zr2389     Zr  0.94613445  0.34050090  0.72244479     1.88900
O2390       O  0.91506581  0.28991973  0.80821705    -0.74100
O2391       O  0.87958264  0.27212306  0.63835460    -0.53400
O2392       O  0.95355178  0.30835436  0.67094466    -0.98100
O2393       O  0.99083549  0.36539338  0.75994133    -0.55300
O2394       O  0.95015191  0.30465642  0.76144370    -0.74700
C2395       C  0.93752512  0.28996578  0.79186995     0.97700
O2396       O  0.86094080  0.27875944  0.84807182    -0.63500
O2397       O  0.91320979  0.42057416  0.84732098    -0.58300
O2398       O  0.87260770  0.33132651  0.85102495    -0.95000
O2399       O  0.91510557  0.36737561  0.86478192    -0.93400
O2400       O  0.84094211  0.38873483  0.80386260    -0.93700
O2401       O  0.80666749  0.33795926  0.78792274    -0.92500
C2402       C  0.89245673  0.34606559  0.87630390     1.16500
H2403       H  0.89690243  0.41443569  0.75029024     0.32500
H2404       H  0.83028726  0.29877848  0.74502807     0.43300
H2405       H  0.94022859  0.34454191  0.81035621     0.36800
H2406       H  0.92324825  0.34158966  0.64534411     0.33300
H2407       H  0.81375143  0.34800299  0.67566200     0.25100
H2408       H  0.86600518  0.26517400  0.61494031     0.31100
H2409       H  0.93821281  0.28914067  0.67544499     0.37000
H2410       H  0.85700403  0.40798716  0.80315317     0.31400
H2411       H  0.89534051  0.40728306  0.85969885     0.30300
H2412       H  0.97524839  0.42501303  0.84387193     0.32000
H2413       H  0.99675516  0.38605314  0.75597774     0.30900
H2414       H  0.80130796  0.31706999  0.78474236     0.34900
H2415       H  0.84028389  0.27209879  0.84544561     0.27700
H2416       H  0.94480576  0.41952806  0.61038442     0.31900
H2417       H  0.98728568  0.38317346  0.67454208     0.34800
H2418       H  0.92747008  0.42581522  0.86966998     0.27400
H2419       H  0.86398701  0.26124863  0.84257264     0.40200
H2420       H  0.81583016  0.27301397  0.63591523     0.30300
H2421       H  0.80124367  0.32032403  0.70088956     0.37900
H2422       H  0.00453975  0.36047810  0.74409207     0.29800
H2423       H  0.89803746  0.28355180  0.62576966     0.29800
H2424       H  0.95743602  0.39807657  0.62067302     0.30100
C2425       C  0.79253431  0.41573812  0.53543077     0.79300
N2426       N  0.77055433  0.39290783  0.55227833    -0.79000
C2427       C  0.76694733  0.39346799  0.59418624     0.81700
N2428       N  0.78449481  0.41658917  0.61740645    -0.79000
C2429       C  0.80560184  0.43926133  0.60128892     0.81800
N2430       N  0.80993642  0.43841157  0.56026277    -0.80700
C2431       C  0.79219171  0.39858187  0.91494972     0.79300
N2432       N  0.77356456  0.37772032  0.88790260    -0.79000
C2433       C  0.75702332  0.38470969  0.86263007     0.81700
N2434       N  0.75925262  0.41172678  0.86463924    -0.79000
C2435       C  0.77747629  0.43239564  0.89078850     0.81800
N2436       N  0.79407787  0.42567713  0.91529734    -0.80700
C2437       C  0.65176538  0.42349900  0.51917446     0.79300
N2438       N  0.66909536  0.45082457  0.53296491    -0.79000
C2439       C  0.68664837  0.45625272  0.56573705     0.81700
N2440       N  0.68594402  0.43385336  0.58582744    -0.79000
C2441       C  0.66855808  0.40628133  0.57437016     0.81800
N2442       N  0.65112853  0.40074587  0.54042628    -0.80700
C2443       C  0.81837920  0.16932557  0.73137947     0.79300
N2444       N  0.83246698  0.19837459  0.73164108    -0.79000
C2445       C  0.81825001  0.21497163  0.73186745     0.81700
N2446       N  0.78936317  0.20212128  0.73121077    -0.79000
C2447       C  0.77517904  0.17274630  0.73035589     0.81800
N2448       N  0.78984019  0.15665305  0.73083720    -0.80700
C2449       C  0.86139770  0.44393754  0.67579451    -0.07100
C2450       C  0.83848945  0.44678944  0.69475388    -0.18200
C2451       C  0.82219197  0.45643298  0.67232973     0.10100
C2452       C  0.82759759  0.45968221  0.62984191    -0.07000
C2453       C  0.85543013  0.46761349  0.61720668    -0.18200
C2454       C  0.87287966  0.45959838  0.64037657     0.10200
S2455       S  0.79027010  0.45536956  0.69504709    -0.33200
S2456       S  0.90823385  0.46776445  0.62312349    -0.33200
H2457       H  0.90806675  0.48419537  0.59018113     0.28200
H2458       H  0.78271335  0.46648634  0.66119459     0.28200
H2459       H  0.83120473  0.43830417  0.72456578     0.18800
H2460       H  0.86149073  0.47458341  0.58635204     0.18800
C2461       C  0.95163231  0.27398846  0.81026804    -0.07100
C2462       C  0.95191173  0.27252224  0.85319925    -0.18200
C2463       C  0.47550310  0.27337600  0.86706527     0.10100
C2464       C  0.49837539  0.27290308  0.84389853    -0.07000
C2465       C  0.99163293  0.26237590  0.80581208    -0.18200
C2466       C  0.96979358  0.26553744  0.78644805     0.10200
S2467       S  0.47409590  0.27279856  0.92231666    -0.33200
S2468       S  0.96755043  0.26043532  0.73106314    -0.33200
H2469       H  0.93848841  0.25304010  0.72872508     0.28200
H2470       H  0.48715194  0.25410057  0.92406881     0.28200
H2471       H  0.93698818  0.27722833  0.87180408     0.18800
H2472       H  0.00687378  0.25858475  0.78666375     0.18800
C2473       C  0.80604644  0.01793908  0.86202667    -0.07100
C2474       C  0.81371832  0.01392249  0.90129284    -0.18200
C2475       C  0.80186585  0.48591180  0.91146491     0.10100
C2476       C  0.78250245  0.46263584  0.88627953    -0.07000
C2477       C  0.77122122  0.46859155  0.85087827    -0.18200
C2478       C  0.78298631  0.49599004  0.83582706     0.10200
S2479       S  0.81336396  0.48101662  0.96138164    -0.33200
S2480       S  0.77176790  0.50156645  0.78620020    -0.33200
H2481       H  0.74052087  0.98257017  0.79752824     0.28200
H2482       H  0.82918010  0.51031572  0.97291015     0.28200
H2483       H  0.83285210  0.03009691  0.91579121     0.18800
H2484       H  0.75529755  0.45129140  0.83229484     0.18800
C2485       C  0.96799333  0.17069459  0.60746742    -0.07100
C2486       C  0.97925017  0.15542639  0.58233768    -0.18200
C2487       C  0.51365679  0.16678496  0.56540322     0.10100
C2488       C  0.52244934  0.19633995  0.56077243    -0.07000
C2489       C  0.50457557  0.20929722  0.57158125    -0.18200
C2490       C  0.47891559  0.19384050  0.59079097     0.10200
S2491       S  0.53684440  0.14952011  0.55522750    -0.33200
S2492       S  0.45753816  0.21208969  0.60694719    -0.33200
H2493       H  0.97941923  0.24790341  0.61808440     0.28200
H2494       H  0.52004014  0.12320579  0.57237660     0.28200
H2495       H  0.97050782  0.13227620  0.58357854     0.18800
H2496       H  0.51160957  0.23196893  0.56714795     0.18800
C2497       C  0.70120495  0.48565924  0.58586884    -0.07100
C2498       C  0.70916979  0.48808432  0.62765444    -0.18200
C2499       C  0.71712927  0.01680884  0.64973078     0.10100
C2500       C  0.70918375  0.03721408  0.63426420    -0.07000
C2501       C  0.70425513  0.03626913  0.59176512    -0.18200
C2502       C  0.70195211  0.51027939  0.56803026     0.10200
S2503       S  0.72835300  0.01979991  0.70273590    -0.33200
S2504       S  0.69986189  0.51281840  0.51324812    -0.33200
H2505       H  0.71302456  0.49466811  0.50298390     0.28200
H2506       H  0.73818026  0.99836551  0.69888997     0.28200
H2507       H  0.71072367  0.47025636  0.64148906     0.18800
H2508       H  0.69955558  0.05267404  0.57899877     0.18800
C2509       C  0.54604834  0.18838658  0.83019169    -0.07100
C2510       C  0.54776949  0.19081278  0.78748885    -0.18200
C2511       C  0.55263528  0.17007864  0.76331444     0.10100
C2512       C  0.55362277  0.14673913  0.78314947    -0.07000
C2513       C  0.53977753  0.13959618  0.82096816    -0.18200
C2514       C  0.53362463  0.16012049  0.84327833     0.10200
S2515       S  0.55970380  0.17506087  0.70917318    -0.33200
S2516       S  0.51740583  0.15206302  0.89267664    -0.33200
H2517       H  0.51509006  0.17820221  0.89875504     0.28200
H2518       H  0.54414297  0.19115661  0.70492806     0.28200
H2519       H  0.55208119  0.21123301  0.77499128     0.18800
H2520       H  0.53671300  0.11997932  0.83504875     0.18800
C2521       C  0.91290579  0.11595882  0.94025155    -0.07100
C2522       C  0.88897465  0.12038282  0.95139504    -0.18200
C2523       C  0.88797361  0.13540531  0.98853811     0.10100
C2524       C  0.91172559  0.14700594  0.01539106    -0.07000
C2525       C  0.93445125  0.14004695  0.00583375    -0.18200
C2526       C  0.93520549  0.12467704  0.96909333     0.10200
S2527       S  0.85723970  0.14179157  0.99733344    -0.33200
S2528       S  0.96592688  0.11824614  0.95999118    -0.33200
H2529       H  0.95435427  0.09749865  0.92724349     0.28200
H2530       H  0.85214175  0.12975976  0.03601041     0.28200
H2531       H  0.87176085  0.11415054  0.92935182     0.18800
H2532       H  0.95256040  0.14775667  0.02646807     0.18800
C2533       C  0.61076458  0.18709051  0.39870027    -0.07100
C2534       C  0.62717211  0.21639274  0.41172242    -0.18200
C2535       C  0.62349326  0.22807523  0.45019461     0.10100
C2536       C  0.60376603  0.21009646  0.47773331    -0.07000
C2537       C  0.59074576  0.18024026  0.46730871    -0.18200
C2538       C  0.59404605  0.16858595  0.42862574     0.10200
S2539       S  0.64246690  0.26638982  0.46020960    -0.33200
S2540       S  0.57539077  0.13022822  0.41938318    -0.33200
H2541       H  0.59756071  0.12770433  0.39740585     0.28200
H2542       H  0.61848873  0.27038642  0.47200550     0.28200
H2543       H  0.64139974  0.23121205  0.39055381     0.18800
H2544       H  0.57658214  0.16579884  0.48885056     0.18800
C2545       C  0.60100389  0.20635104  0.95494405    -0.07100
C2546       C  0.59617072  0.17749743  0.95919198    -0.18200
C2547       C  0.58581800  0.16331771  0.99613881     0.10100
C2548       C  0.57991080  0.17820691  0.03013081    -0.07000
C2549       C  0.58583063  0.20740882  0.02577182    -0.18200
C2550       C  0.59601885  0.22132171  0.98924930     0.10200
S2551       S  0.57910772  0.12607666  0.99837931    -0.33200
S2552       S  0.59956545  0.25753434  0.98703682    -0.33200
H2553       H  0.62219280  0.26629558  0.95949504     0.28200
H2554       H  0.58471200  0.12165396  0.95682023     0.28200
H2555       H  0.59891784  0.16550762  0.93242864     0.18800
H2556       H  0.58229012  0.21991872  0.05111702     0.18800
C2557       C  0.53290303  0.24009729  0.13341930    -0.07100
C2558       C  0.02716906  0.23414430  0.09575883    -0.18200
C2559       C  0.00172217  0.22947736  0.07653106     0.10100
C2560       C  0.97887660  0.22824818  0.10115860    -0.07000
C2561       C  0.98452565  0.23937143  0.14215059    -0.18200
C2562       C  0.00984481  0.24419710  0.16125814     0.10200
S2563       S  0.99894940  0.22336288  0.02135456    -0.33200
S2564       S  0.51712853  0.25780938  0.20959952    -0.33200
H2565       H  0.54610138  0.26487265  0.21147707     0.28200
H2566       H  0.97817211  0.23338312  0.01686506     0.28200
H2567       H  0.04347322  0.23170260  0.07762414     0.18800
H2568       H  0.96809286  0.24106175  0.16102146     0.18800
C2569       C  0.67473639  0.10109621  0.45358553    -0.07100
C2570       C  0.65830628  0.07347429  0.46821163    -0.18200
C2571       C  0.64763701  0.06947161  0.50836492     0.10100
C2572       C  0.65242722  0.09348740  0.53526038    -0.07000
C2573       C  0.66820714  0.12114067  0.52069286    -0.18200
C2574       C  0.67928769  0.12526508  0.48046878     0.10200
S2575       S  0.62984516  0.03316815  0.52435241    -0.33200
S2576       S  0.69862906  0.16139771  0.46415843    -0.33200
H2577       H  0.69451785  0.17579077  0.49988412     0.28200
H2578       H  0.64286431  0.03892580  0.56344125     0.28200
H2579       H  0.65441670  0.05443883  0.44858321     0.18800
H2580       H  0.67259120  0.13968554  0.54164037     0.18800
C2581       C  0.65253479  0.05881669  0.31281901    -0.07100
C2582       C  0.66057409  0.06077468  0.27120039    -0.18200
C2583       C  0.64357531  0.06471475  0.24186205     0.10100
C2584       C  0.61881322  0.06669926  0.25557332    -0.07000
C2585       C  0.60669169  0.05354244  0.29208146    -0.18200
C2586       C  0.62353868  0.04921056  0.32115032     0.10200
S2587       S  0.65621187  0.07059819  0.18976320    -0.33200
S2588       S  0.60815683  0.03608897  0.36993763    -0.33200
H2589       H  0.62904799  0.02744139  0.38077895     0.28200
H2590       H  0.63001030  0.06471025  0.17168656     0.28200
H2591       H  0.68186422  0.06439188  0.26297406     0.18800
H2592       H  0.58589456  0.05125400  0.30095558     0.18800
C2593       C  0.81595086  0.09727796  0.48972745    -0.07100
C2594       C  0.80098173  0.07657372  0.51821502    -0.18200
C2595       C  0.81133798  0.07764214  0.55837699     0.10100
C2596       C  0.83806291  0.09944938  0.57081711    -0.07000
C2597       C  0.85232874  0.12115066  0.54333393    -0.18200
C2598       C  0.84166281  0.12042924  0.50342133     0.10200
S2599       S  0.78926623  0.05207073  0.59419003    -0.33200
S2600       S  0.86243600  0.14934024  0.47151257    -0.33200
H2601       H  0.86052499  0.13127383  0.43649927     0.28200
H2602       H  0.76592371  0.03734556  0.56764354     0.28200
H2603       H  0.78082680  0.05931557  0.50886154     0.18800
H2604       H  0.87247657  0.13851595  0.55258216     0.18800
C2605       C  0.79972868  0.41635019  0.49101344    -0.07100
C2606       C  0.82725982  0.42046479  0.48014582    -0.18200
C2607       C  0.83660595  0.42407706  0.43918074     0.10100
C2608       C  0.81853112  0.42481917  0.40798809    -0.07000
C2609       C  0.79112139  0.42118879  0.41936180    -0.18200
C2610       C  0.78168992  0.41714009  0.46005187     0.10200
S2611       S  0.87097575  0.42575989  0.42854534    -0.33200
S2612       S  0.74673362  0.41402794  0.47059832    -0.33200
H2613       H  0.75392329  0.43032295  0.50835813     0.28200
H2614       H  0.86172653  0.40600013  0.39417644     0.28200
H2615       H  0.84152956  0.42039813  0.50384487     0.18800
H2616       H  0.77663692  0.42146803  0.39620662     0.18800
C2617       C  0.80995715  0.39324800  0.94611762    -0.07100
C2618       C  0.83646647  0.41594961  0.95729190    -0.18200
C2619       C  0.85006713  0.41718688  0.99493220     0.10100
C2620       C  0.83688063  0.39556366  0.02289670    -0.07000
C2621       C  0.81318697  0.37049236  0.00811357    -0.18200
C2622       C  0.79934030  0.36935185  0.97083752     0.15000
S2623       S  0.88255383  0.44820744  0.00729962    -0.33200
S2624       S  0.76640009  0.33847031  0.95955261    -0.33200
H2625       H  0.75088403  0.35475314  0.95688220     0.28200
H2626       H  0.89484581  0.43244761  0.02622004     0.28200
H2627       H  0.84572569  0.43403543  0.93791623     0.18800
H2628       H  0.80318376  0.35293963  0.02823666     0.18800
C2629       C  0.77489673  0.48174292  0.31511710    -0.07100
C2630       C  0.77598859  0.98213656  0.36136997    -0.18200
C2631       C  0.77616628  0.00497800  0.38749196     0.10100
C2632       C  0.77284163  0.02792242  0.37010850    -0.07000
C2633       C  0.76419573  0.02422598  0.32836695    -0.18200
C2634       C  0.76605243  0.50165879  0.30055448     0.10200
S2635       S  0.78272898  0.00503076  0.44187388    -0.33200
S2636       S  0.75594119  0.50097089  0.24755821    -0.33200
H2637       H  0.74676648  0.47120571  0.23970561     0.28200
H2638       H  0.77740545  0.97591653  0.44218019     0.28200
H2639       H  0.78146377  0.96623835  0.37392786     0.18800
H2640       H  0.75933546  0.04020633  0.31467309     0.18800
C2641       C  0.89307702  0.31170415  0.46630649    -0.07100
C2642       C  0.86786061  0.29825799  0.48759395    -0.18200
C2643       C  0.86291705  0.31087525  0.52444623     0.10100
C2644       C  0.88438599  0.33686901  0.54252574    -0.07000
C2645       C  0.90783943  0.35213599  0.51848494    -0.18200
C2646       C  0.91204178  0.34021982  0.48022288     0.10200
S2647       S  0.82903249  0.29184865  0.54781008    -0.33200
S2648       S  0.94192726  0.36180618  0.44980562    -0.33200
H2649       H  0.94940326  0.38788505  0.47320307     0.28200
H2650       H  0.82888090  0.31647444  0.56857478     0.28200
H2651       H  0.85240213  0.27717076  0.47656745     0.18800
H2652       H  0.92395262  0.37238658  0.53097232     0.18800
C2653       C  0.67337618  0.12736680  0.99853839    -0.07100
C2654       C  0.64671794  0.10513274  0.98664491    -0.18200
C2655       C  0.63426815  0.10358468  0.94787550     0.10100
C2656       C  0.64821160  0.12530399  0.92027965    -0.07000
C2657       C  0.67223394  0.14992187  0.93531148    -0.18200
C2658       C  0.68521499  0.15089484  0.97331728     0.10200
S2659       S  0.60261274  0.07205082  0.93274620    -0.33200
S2660       S  0.71855856  0.18097505  0.98512155    -0.33200
H2661       H  0.73294425  0.16369412  0.98897428     0.28200
H2662       H  0.59540692  0.06176844  0.97237269     0.28200
H2663       H  0.63676945  0.08734188  0.00632866     0.18800
H2664       H  0.68288800  0.16738841  0.91527543     0.18800
C2665       C  0.57277989  0.34749827  0.03899749    -0.07100
C2666       C  0.59453698  0.35902599  0.01014734    -0.18200
C2667       C  0.59229734  0.34667695  0.96963547     0.10100
C2668       C  0.56750230  0.32197661  0.95700513    -0.07000
C2669       C  0.54647960  0.30971456  0.98650972    -0.18200
C2670       C  0.54885577  0.32180579  0.02682196     0.10200
S2671       S  0.62057982  0.36411256  0.93420714    -0.33200
S2672       S  0.52070119  0.30268796  0.06120924    -0.33200
H2673       H  0.53930046  0.30374621  0.09262746     0.28200
H2674       H  0.64027839  0.38307168  0.96344185     0.28200
H2675       H  0.61305498  0.37852262  0.01889315     0.18800
H2676       H  0.52778851  0.29024341  0.97816893     0.18800
C2677       C  0.63386829  0.42034237  0.48155414    -0.07100
C2678       C  0.62100394  0.43931298  0.47847710    -0.18200
C2679       C  0.61003805  0.44291014  0.44081179     0.10100
C2680       C  0.61166567  0.42726504  0.40458847    -0.07000
C2681       C  0.62262549  0.40683256  0.40839842    -0.18200
C2682       C  0.63370312  0.40333497  0.44587341     0.10200
S2683       S  0.59617088  0.46924962  0.44036605    -0.33200
S2684       S  0.65002711  0.37901113  0.44510665    -0.33200
H2685       H  0.67534464  0.39937901  0.46362065     0.28200
H2686       H  0.60766588  0.47951572  0.40217911     0.28200
H2687       H  0.62092091  0.45275669  0.50529534     0.18800
H2688       H  0.62401812  0.39444714  0.38118985     0.18800
C2689       C  0.01829030  0.33416178  0.35560772    -0.07100
C2690       C  0.00444201  0.30507734  0.34212509    -0.18200
C2691       C  0.97950943  0.28671856  0.36097544     0.10100
C2692       C  0.96838504  0.29821886  0.39323172    -0.07000
C2693       C  0.98577731  0.32532240  0.41187205    -0.18200
C2694       C  0.01028564  0.34363150  0.39287708     0.10200
S2695       S  0.96180300  0.24941325  0.34251767    -0.33200
S2696       S  0.53559430  0.37531760  0.41686152    -0.33200
H2697       H  0.56102695  0.37613582  0.40139429     0.28200
H2698       H  0.98154124  0.25031657  0.31229455     0.28200
H2699       H  0.01165706  0.29748170  0.31466422     0.18800
H2700       H  0.97897126  0.33364657  0.43898523     0.18800
C2701       C  0.66046703  0.99740551  0.09247302    -0.07100
C2702       C  0.68789727  0.01507512  0.10668072    -0.18200
C2703       C  0.70229788  0.04310616  0.09384299     0.10100
C2704       C  0.68853004  0.05386436  0.06695996    -0.07000
C2705       C  0.66260588  0.03457792  0.04878927    -0.18200
C2706       C  0.64852134  0.00660232  0.06126478     0.10200
S2707       S  0.73734851  0.06409288  0.11466180    -0.33200
S2708       S  0.61186960  0.48838340  0.03520664    -0.33200
H2709       H  0.61123191  0.46154143  0.04262327     0.28200
H2710       H  0.74788204  0.07844824  0.07834588     0.28200
H2711       H  0.69722107  0.00789946  0.13044772     0.18800
H2712       H  0.65195127  0.04178855  0.02704820     0.18800
C2713       C  0.88185457  0.30325809  0.98954374    -0.07100
C2714       C  0.86017400  0.30953490  0.97527380    -0.18200
C2715       C  0.86360770  0.32498054  0.93968840     0.10100
C2716       C  0.88955072  0.33517332  0.91819308    -0.07000
C2717       C  0.91079533  0.32821385  0.93195888    -0.18200
C2718       C  0.90694372  0.31179624  0.96622287     0.10200
S2719       S  0.83429024  0.33150181  0.92364959    -0.33200
S2720       S  0.93495042  0.30201747  0.97830078    -0.33200
H2721       H  0.91781288  0.27715942  0.99857940     0.28200
H2722       H  0.85084569  0.35797359  0.90669390     0.28200
H2723       H  0.84105770  0.30370110  0.99298025     0.18800
H2724       H  0.93001311  0.33417752  0.91443161     0.18800
C2725       C  0.93074003  0.37792452  0.16850521    -0.07100
C2726       C  0.94262445  0.38337966  0.12923613    -0.18200
C2727       C  0.94404403  0.36087970  0.10493848     0.10100
C2728       C  0.93127176  0.33295841  0.11984274    -0.07000
C2729       C  0.92972578  0.33083310  0.16268483    -0.18200
C2730       C  0.93035485  0.35393906  0.18773511     0.10200
S2731       S  0.95772683  0.36787966  0.05367035    -0.33200
S2732       S  0.92596351  0.34996143  0.24236478    -0.33200
H2733       H  0.93507693  0.37954965  0.25225271     0.28200
H2734       H  0.96352855  0.34365580  0.05030342     0.28200
H2735       H  0.94665475  0.40330690  0.11525919     0.18800
H2736       H  0.92351449  0.31019530  0.17581618     0.18800
C2737       C  0.51903375  0.98857840  0.24047781     0.79300
N2738       N  0.52781636  0.51584491  0.23253437    -0.79000
C2739       C  0.51242633  0.53073363  0.22444242     0.81700
N2740       N  0.98417356  0.51689722  0.22207271    -0.79000
C2741       C  0.97188094  0.98777605  0.23214248     0.81800
N2742       N  0.98836320  0.97344413  0.23803662    -0.80700
C2743       C  0.66004607  0.84292440  0.20114880     0.79300
N2744       N  0.64773748  0.81392197  0.20212065    -0.79000
C2745       C  0.66328542  0.79919074  0.20759365     0.81700
N2746       N  0.69185034  0.81383478  0.21278128    -0.79000
C2747       C  0.70450453  0.84318920  0.21211957     0.81800
N2748       N  0.68845913  0.85758219  0.20637503    -0.80700
C2749       C  0.88459056  0.80151203  0.03975016     0.79300
N2750       N  0.86126559  0.78115314  0.05798547    -0.79000
C2751       C  0.86297662  0.77665547  0.09899024     0.81700
N2752       N  0.88742645  0.79223057  0.12017043    -0.79000
C2753       C  0.91034641  0.81197074  0.10201484     0.81800
N2754       N  0.90833648  0.81647085  0.06225394    -0.80700
Zr2755     Zr  0.62364615  0.90900677  0.16069636     2.17500
O2756       O  0.66744377  0.92217061  0.12270086    -0.52300
O2757       O  0.60314061  0.87619942  0.09919704    -0.75500
O2758       O  0.64791573  0.87934486  0.17823813    -0.82300
O2759       O  0.62288381  0.98001145  0.13689199    -0.84000
O2760       O  0.62095098  0.84875832  0.22563029    -0.79600
O2761       O  0.64655465  0.95258334  0.12287119    -0.91300
O2762       O  0.55559011  0.85530830  0.10461198    -0.77200
O2763       O  0.58371447  0.86780212  0.18160045    -0.86700
O2764       O  0.58305639  0.91673389  0.14536419    -0.86400
O2765       O  0.63095432  0.90872997  0.23380765    -0.73200
O2766       O  0.62828023  0.95227780  0.19951212    -0.85300
Zr2767     Zr  0.55507707  0.91859844  0.28169678     2.26400
Zr2768     Zr  0.58956594  0.86783741  0.25437864     2.06300
Zr2769     Zr  0.58656280  0.95831710  0.18625209     2.10000
Zr2770     Zr  0.54361903  0.87590071  0.16721510     1.78800
O2771       O  0.60473245  0.01006569  0.18422527    -0.94100
O2772       O  0.51791191  0.82431622  0.17454406    -0.41900
O2773       O  0.54680416  0.91763729  0.20845118    -0.78500
O2774       O  0.54853635  0.87523689  0.24010441    -0.97200
O2775       O  0.59555346  0.91069832  0.29178781    -0.90500
O2776       O  0.59449430  0.96004693  0.25936816    -0.93400
C2777       C  0.57832471  0.85858642  0.08570334     1.00400
C2778       C  0.64209627  0.97488165  0.11869370     1.13300
C2779       C  0.64187213  0.85797603  0.20114392     1.04100
O2780       O  0.56366311  0.81594354  0.24583025    -0.95500
O2781       O  0.55602845  0.84761285  0.30909483    -0.91300
O2782       O  0.53199246  0.87517939  0.31865861    -0.84400
C2783       C  0.53658013  0.85331444  0.32570614     1.10700
O2784       O  0.67949757  0.98640233  0.24506560    -0.97500
Zr2785     Zr  0.63506666  0.95166046  0.27178937     1.88900
O2786       O  0.57868582  0.92958739  0.35240283    -0.74100
O2787       O  0.61798784  0.86628754  0.31191227    -0.53400
O2788       O  0.67597660  0.94710015  0.29847038    -0.98100
O2789       O  0.64656974  0.99878079  0.30499645    -0.55300
O2790       O  0.62517368  0.94084225  0.34359380    -0.74700
C2791       C  0.60340323  0.93383758  0.36651933     0.97700
O2792       O  0.51113648  0.90957040  0.31753530    -0.63500
O2793       O  0.55449432  0.95382935  0.12996823    -0.58300
O2794       O  0.53318599  0.95267933  0.26734199    -0.95000
O2795       O  0.55642352  0.97933963  0.21416339    -0.93400
O2796       O  0.52325310  0.88759214  0.10823387    -0.93700
O2797       O  0.49343265  0.86198479  0.17517201    -0.92500
C2798       C  0.53728332  0.97247579  0.24153628     1.16500
H2799       H  0.58191172  0.91908333  0.11630972     0.32500
H2800       H  0.53166214  0.85893987  0.24763409     0.43300
H2801       H  0.59545808  0.97759350  0.27300596     0.36800
H2802       H  0.64788671  0.90671330  0.23999721     0.33300
H2803       H  0.50480754  0.81710188  0.15058261     0.25100
H2804       H  0.61368217  0.84570042  0.31316220     0.31100
H2805       H  0.66816066  0.92850726  0.31172008     0.37000
H2806       H  0.51519872  0.90062052  0.11956507     0.31400
H2807       H  0.54980068  0.97039496  0.13445755     0.30300
H2808       H  0.59030977  0.51465412  0.16693830     0.32000
H2809       H  0.66362984  0.00311608  0.32184974     0.30900
H2810       H  0.99335569  0.87195104  0.20454453     0.34900
H2811       H  0.51421465  0.92772366  0.33320317     0.27700
H2812       H  0.66469244  0.90483251  0.10511579     0.31900
H2813       H  0.67491103  0.00115702  0.23325175     0.34800
H2814       H  0.56635012  0.95820054  0.10509792     0.27400
H2815       H  0.00358489  0.91429006  0.30983986     0.40200
H2816       H  0.56573728  0.81154537  0.21628894     0.30300
H2817       H  0.53196452  0.81659832  0.16890252     0.37900
H2818       H  0.63149941  0.99529271  0.32544677     0.29800
H2819       H  0.63771670  0.87539699  0.30237266     0.29800
H2820       H  0.68201236  0.92423502  0.14327220     0.30100
C2821       C  0.69200139  0.62480577  0.02842480     0.79300
N2822       N  0.71073301  0.64482567  0.05636285    -0.79000
C2823       C  0.72205035  0.63561337  0.08710985     0.81700
N2824       N  0.71451648  0.60714556  0.08944836    -0.79000
C2825       C  0.69693535  0.58754221  0.06137064     0.81800
N2826       N  0.68572071  0.59664919  0.03147206    -0.80700
C2827       C  0.90154584  0.79965579  0.42938805     0.79300
N2828       N  0.88201551  0.77762146  0.40470585    -0.79000
C2829       C  0.89088776  0.76292115  0.37545393     0.81700
N2830       N  0.91886899  0.77042548  0.37160103    -0.79000
C2831       C  0.93809231  0.79121638  0.39683417     0.81800
N2832       N  0.92909108  0.80550452  0.42524789    -0.80700
Zr2833     Zr  0.80458440  0.69047426  0.31719505     2.17500
O2834       O  0.79402205  0.71927174  0.37081918    -0.52300
O2835       O  0.80804108  0.65413621  0.35951867    -0.75500
O2836       O  0.75853153  0.66091541  0.34719648    -0.82300
O2837       O  0.88160751  0.73647914  0.31000127    -0.84000
O2838       O  0.73008490  0.64507924  0.29040234    -0.79600
O2839       O  0.84540979  0.72632984  0.35518713    -0.91300
O2840       O  0.79935130  0.61749310  0.31152721    -0.77200
O2841       O  0.77504295  0.65092063  0.27308693    -0.86700
O2842       O  0.83486507  0.67174872  0.28394917    -0.86400
O2843       O  0.78205843  0.70856672  0.26897135    -0.73200
O2844       O  0.83650403  0.72698341  0.27457639    -0.85300
Zr2845     Zr  0.81251336  0.68479086  0.15088794     2.26400
Zr2846     Zr  0.75210614  0.66772578  0.22643690     2.06300
Zr2847     Zr  0.86654341  0.70837899  0.24235604     2.10000
Zr2848     Zr  0.80383750  0.63162035  0.24096216     1.78800
O2849       O  0.90802549  0.75322379  0.23243098    -0.94100
O2850       O  0.75967203  0.58809172  0.24181098    -0.41900
O2851       O  0.83562243  0.66796782  0.19949960    -0.78500
O2852       O  0.78037174  0.64731699  0.19178321    -0.97200
O2853       O  0.78333935  0.70429676  0.18390550    -0.90500
O2854       O  0.84443134  0.72472858  0.19356440    -0.93400
C2855       C  0.80263662  0.62784590  0.34901913     1.00400
C2856       C  0.87131808  0.74041416  0.34519326     1.13300
C2857       C  0.73486030  0.64475595  0.32925176     1.04100
O2858       O  0.70759022  0.62593963  0.21381582    -0.95500
O2859       O  0.73267021  0.65210764  0.15657158    -0.91300
O2860       O  0.76832867  0.66764508  0.11044037    -0.84400
C2861       C  0.74206599  0.65452991  0.11956466     1.10700
O2862       O  0.80412263  0.77299469  0.27829002    -0.97500
Zr2863     Zr  0.81505606  0.74435600  0.22527340     1.88900
O2864       O  0.83095643  0.72841369  0.11165248    -0.74100
O2865       O  0.72595249  0.69685083  0.23379658    -0.53400
O2866       O  0.78215840  0.76178779  0.19999825    -0.98100
O2867       O  0.85612017  0.78824430  0.24727048    -0.55300
O2868       O  0.83582964  0.76446234  0.15913916    -0.74700
C2869       C  0.84015085  0.75520619  0.12312251     0.97700
O2870       O  0.81006650  0.65236347  0.09173646    -0.63500
O2871       O  0.89722339  0.68706954  0.26374896    -0.58300
O2872       O  0.85438456  0.68220951  0.12397842    -0.95000
O2873       O  0.88740145  0.70185043  0.17547929    -0.93400
O2874       O  0.84041691  0.61477948  0.24531606    -0.93700
O2875       O  0.80163713  0.59589969  0.18708370    -0.92500
C2876       C  0.87953296  0.69124497  0.13814142     1.16500
H2877       H  0.84544715  0.66662988  0.30333142     0.32500
H2878       H  0.76858546  0.63092558  0.17405882     0.43300
H2879       H  0.86022782  0.73809169  0.17880234     0.36800
H2880       H  0.77098087  0.71653729  0.28436532     0.33300
H2881       H  0.76482095  0.57355502  0.25307229     0.25100
H2882       H  0.72213779  0.69774838  0.26362181     0.31100
H2883       H  0.78812636  0.76737307  0.17160486     0.37000
H2884       H  0.85529965  0.62949342  0.26328409     0.31400
H2885       H  0.90767200  0.68585537  0.23869921     0.30300
H2886       H  0.92421225  0.74923938  0.23950461     0.32000
H2887       H  0.87030641  0.79061111  0.22568723     0.30900
H2888       H  0.79945826  0.60392134  0.16115335     0.34900
H2889       H  0.79337838  0.63408255  0.09628689     0.27700
H2890       H  0.79081055  0.70834337  0.39590570     0.31900
H2891       H  0.81063588  0.76867337  0.30434322     0.34800
H2892       H  0.91160957  0.70222365  0.28187871     0.27400
H2893       H  0.80511819  0.66013600  0.06753738     0.40200
H2894       H  0.71179785  0.60963148  0.22008638     0.30300
H2895       H  0.74839069  0.59212846  0.26374216     0.37900
H2896       H  0.86376199  0.78336161  0.27178832     0.29800
H2897       H  0.73964064  0.71659702  0.22807486     0.29800
H2898       H  0.77523323  0.71783265  0.36335481     0.30100
Zr2899     Zr  0.87902052  0.93148089  0.16952894     2.17500
O2900       O  0.90606907  0.96403199  0.11732150    -0.52300
O2901       O  0.90724780  0.90477545  0.16727448    -0.75500
O2902       O  0.92766085  0.96254786  0.19522652    -0.82300
O2903       O  0.81462686  0.88962797  0.09558631    -0.84000
O2904       O  0.92603305  0.96825916  0.26517169    -0.79600
O2905       O  0.86216147  0.91663264  0.09577701    -0.91300
O2906       O  0.89046415  0.87139043  0.21512163    -0.77200
O2907       O  0.88117427  0.91524715  0.23606355    -0.86700
O2908       O  0.84241036  0.88367293  0.17161355    -0.86400
O2909       O  0.87367798  0.96500287  0.22020146    -0.73200
O2910       O  0.83534867  0.93505337  0.16095382    -0.85300
Zr2911     Zr  0.79445934  0.90357067  0.27607703     2.26400
Zr2912     Zr  0.87543724  0.94744795  0.28692531     2.06300
Zr2913     Zr  0.79859368  0.88718931  0.16419209     2.10000
Zr2914     Zr  0.84511945  0.86795185  0.23791493     1.78800
O2915       O  0.77054939  0.90261034  0.12147925    -0.94100
O2916       O  0.86717421  0.85822875  0.29686764    -0.41900
O2917       O  0.80062840  0.86956489  0.22908020    -0.78500
O2918       O  0.83803330  0.89969602  0.28758455    -0.97200
O2919       O  0.83201560  0.95110070  0.27679236    -0.90500
O2920       O  0.79194973  0.92083064  0.21121730    -0.93400
C2921       C  0.90887670  0.88543823  0.18872291     1.00400
C2922       C  0.83797188  0.90182834  0.07706798     1.13300
C2923       C  0.93982783  0.97180483  0.23089324     1.04100
O2924       O  0.90454385  0.93799690  0.33593961    -0.95500
O2925       O  0.85252505  0.93932058  0.35654643    -0.91300
O2926       O  0.80549827  0.91088627  0.34727762    -0.84400
C2927       C  0.82713738  0.92488025  0.37020699     1.10700
O2928       O  0.85112129  0.99949673  0.15532664    -0.97500
Zr2929     Zr  0.82966114  0.96790837  0.21129143     1.88900
O2930       O  0.77746031  0.93874749  0.30013564    -0.74100
O2931       O  0.89241575  0.99772793  0.31080476    -0.53400
O2932       O  0.85975389  0.01711592  0.23596718    -0.98100
O2933       O  0.79380395  0.97548892  0.17376900    -0.55300
O2934       O  0.80049076  0.97795873  0.26292931    -0.74700
C2935       C  0.78357998  0.96470901  0.29159080     0.97700
O2936       O  0.76578037  0.86642939  0.32193810    -0.63500
O2937       O  0.78324920  0.83894650  0.13193989    -0.58300
O2938       O  0.74614667  0.87501490  0.24909692    -0.95000
O2939       O  0.74999076  0.85866283  0.18407321    -0.93400
O2940       O  0.82941346  0.82375902  0.19435629    -0.93700
O2941       O  0.81294950  0.82816351  0.27644975    -0.92500
C2942       C  0.73550247  0.85961732  0.21567420     1.16500
H2943       H  0.84467188  0.87112551  0.15015982     0.32500
H2944       H  0.83782728  0.89176728  0.31380341     0.43300
H2945       H  0.77399956  0.92131067  0.20685884     0.36800
H2946       H  0.88903447  0.98384490  0.21795141     0.33300
H2947       H  0.86889225  0.84030296  0.28860659     0.25100
H2948       H  0.87974948  0.99767381  0.33365757     0.31100
H2949       H  0.85760612  0.51592225  0.26224951     0.37000
H2950       H  0.84666561  0.82096549  0.18889962     0.31400
H2951       H  0.77972303  0.82632885  0.15519282     0.30300
H2952       H  0.75351840  0.88483402  0.11360642     0.32000
H2953       H  0.79339827  0.47001645  0.13981437     0.30900
H2954       H  0.81019340  0.83708411  0.30289088     0.34900
H2955       H  0.74836627  0.86907224  0.32669488     0.27700
H2956       H  0.92220065  0.95932371  0.11149642     0.31900
H2957       H  0.86288222  0.49737438  0.13795372     0.34800
H2958       H  0.76432660  0.83393625  0.12012370     0.27400
H2959       H  0.75967668  0.84802797  0.30529684     0.40200
H2960       H  0.91409459  0.95629305  0.35269878     0.30300
H2961       H  0.88680174  0.87340847  0.29774026     0.37900
H2962       H  0.80046848  0.99661655  0.17462799     0.29800
H2963       H  0.91076966  0.00250822  0.32439830     0.29800
H2964       H  0.91448377  0.98340793  0.13151449     0.30100
C2965       C  0.80705726  0.59157655  0.44393772     0.79300
N2966       N  0.79562190  0.56384807  0.42804788    -0.79000
C2967       C  0.78595231  0.55722691  0.38866736     0.81700
N2968       N  0.78804934  0.57881605  0.36538637    -0.79000
C2969       C  0.79938196  0.60659750  0.37982379     0.81800
N2970       N  0.80918529  0.61328902  0.41957736    -0.80700
C2971       C  0.68487711  0.59912868  0.40903321     0.79300
N2972       N  0.70745607  0.62179546  0.39300856    -0.79000
C2973       C  0.71215487  0.62147938  0.35131542     0.81700
N2974       N  0.69462389  0.59880205  0.32703618    -0.79000
C2975       C  0.67249921  0.57648831  0.34226602     0.81800
N2976       N  0.66775327  0.57709028  0.38308414    -0.80700
Zr2977     Zr  0.57294042  0.62806275  0.27120985     2.17500
O2978       O  0.54458589  0.60466323  0.32978522    -0.52300
O2979       O  0.59940502  0.59998999  0.27414818    -0.75500
O2980       O  0.53954082  0.57812598  0.25305951    -0.82300
O2981       O  0.62713098  0.69418697  0.33372869    -0.84000
O2982       O  0.52863481  0.57399694  0.18454217    -0.79600
O2983       O  0.58627658  0.65455906  0.34060504    -0.91300
O2984       O  0.61969945  0.60195269  0.21201226    -0.77200
O2985       O  0.58284624  0.61780940  0.20172067    -0.86700
O2986       O  0.62080481  0.66066065  0.25974506    -0.86400
O2987       O  0.53871085  0.63224075  0.22665363    -0.73200
O2988       O  0.57523145  0.67514058  0.28115567    -0.85300
Zr2989     Zr  0.59907768  0.70459205  0.15888026     2.26400
Zr2990     Zr  0.55058045  0.62359273  0.15635657     2.06300
Zr2991     Zr  0.62295932  0.70813865  0.26650297     2.10000
Zr2992     Zr  0.63031770  0.64990268  0.19086119     1.78800
O2993       O  0.61308200  0.74118123  0.31324265    -0.94100
O2994       O  0.63725038  0.62478515  0.12899493    -0.41900
O2995       O  0.63376241  0.69800113  0.19807515    -0.78500
O2996       O  0.59864384  0.65772759  0.14656578    -0.97200
O2997       O  0.55166757  0.67024561  0.16871957    -0.90500
O2998       O  0.58844046  0.71442721  0.22689039    -0.93400
C2999       C  0.61096093  0.59017073  0.24619440     1.00400
C3000       C  0.60717984  0.67768525  0.35578259     1.13300
C3001       C  0.52746012  0.56300492  0.22005942     1.04100
O3002       O  0.55273801  0.58900689  0.10384040    -0.95500
O3003       O  0.55717850  0.64273274  0.08460762    -0.91300
O3004       O  0.58505537  0.69101703  0.08968535    -0.84400
C3005       C  0.57046355  0.66778468  0.06892512     1.10700
O3006       O  0.51086271  0.66075524  0.29652299    -0.97500
Zr3007     Zr  0.54146202  0.67970951  0.23798358     1.88900
O3008       O  0.56655038  0.72566224  0.14573733    -0.74100
O3009       O  0.50129520  0.61114563  0.14122324    -0.53400
O3010       O  0.99302135  0.65630907  0.21281746    -0.98100
O3011       O  0.54533454  0.72117064  0.28195118    -0.55300
O3012       O  0.53258232  0.71034731  0.19406991    -0.74700
C3013       C  0.54368075  0.72421600  0.16234952     0.97700
O3014       O  0.63132014  0.72713785  0.10333716    -0.63500
O3015       O  0.67315868  0.72666257  0.28196914    -0.58300
O3016       O  0.63122104  0.75429229  0.17860020    -0.95000
O3017       O  0.65049425  0.75577673  0.24119661    -0.93400
O3018       O  0.67110780  0.65766417  0.23312727    -0.93700
O3019       O  0.67324197  0.67612755  0.15277805    -0.92500
C3020       C  0.64809684  0.76768039  0.20885540     1.16500
H3021       H  0.63311122  0.65830864  0.27944348     0.32500
H3022       H  0.60444035  0.65565065  0.11876313     0.43300
H3023       H  0.58986480  0.73368043  0.23091093     0.36800
H3024       H  0.51996651  0.61819901  0.23290529     0.33300
H3025       H  0.65207072  0.61886056  0.13663958     0.25100
H3026       H  0.50108112  0.62953373  0.13464073     0.31100
H3027       H  0.99461026  0.65348211  0.18269000     0.37000
H3028       H  0.66630803  0.63944206  0.24653130     0.31400
H3029       H  0.67646541  0.74046385  0.30599158     0.30300
H3030       H  0.63166023  0.75445918  0.32532293     0.32000
H3031       H  0.01843217  0.71589235  0.28037880     0.30900
H3032       H  0.68126032  0.69592065  0.16561678     0.34900
H3033       H  0.62969205  0.74521709  0.09916489     0.27700
H3034       H  0.54779132  0.58732990  0.33291927     0.31900
H3035       H  0.01486310  0.64460229  0.30318492     0.34800
H3036       H  0.67559699  0.71037151  0.29292489     0.27400
H3037       H  0.65047605  0.73328682  0.11505896     0.40200
H3038       H  0.56259684  0.57918465  0.11744892     0.30300
H3039       H  0.61983800  0.60657876  0.12616755     0.37900
H3040       H  0.52568325  0.71869831  0.28551530     0.29800
H3041       H  0.49746077  0.59985825  0.11450195     0.29800
H3042       H  0.52469954  0.59728350  0.32048937     0.30100
C3043       C  0.91504603  0.66899578  0.05143251     0.79300
N3044       N  0.94201728  0.68856439  0.05910718    -0.79000
C3045       C  0.94884622  0.70906878  0.09022980     0.81700
N3046       N  0.92822163  0.70920525  0.11560331    -0.79000
C3047       C  0.90103090  0.68993138  0.10922995     0.81800
N3048       N  0.89426394  0.66984920  0.07665289    -0.80700
C3049       C  0.96601401  0.53197637  0.75198314     0.79300
N3050       N  0.99429101  0.54441809  0.74361388    -0.79000
C3051       C  0.50956642  0.52794445  0.73479419     0.81700
N3052       N  0.99474456  0.49906289  0.73377171    -0.79000
C3053       C  0.96856294  0.98744996  0.74244260     0.81800
N3054       N  0.95446119  0.00401083  0.75253117    -0.80700
Zr3055     Zr  0.60404369  0.59031050  0.78241614     2.17500
O3056       O  0.57875343  0.55449306  0.83177074    -0.52300
O3057       O  0.57708858  0.61853418  0.78661932    -0.75500
O3058       O  0.62251578  0.60983883  0.85397837    -0.82300
O3059       O  0.55330192  0.54317912  0.69550308    -0.84000
O3060       O  0.66988391  0.63631955  0.84922854    -0.79600
O3061       O  0.55497984  0.55775324  0.76352489    -0.91300
O3062       O  0.59070646  0.64840859  0.73402323    -0.77200
O3063       O  0.64008135  0.63764810  0.77421843    -0.86700
O3064       O  0.59812710  0.60153865  0.71376247    -0.86400
O3065       O  0.64833754  0.58782064  0.79012697    -0.73200
O3066       O  0.60787832  0.55451927  0.73495863    -0.85300
Zr3067     Zr  0.68345549  0.61195437  0.66918229     2.26400
Zr3068     Zr  0.68449282  0.63522276  0.77963712     2.06300
Zr3069     Zr  0.60234715  0.56687860  0.66638642     2.10000
Zr3070     Zr  0.63370760  0.64884615  0.70665917     1.78800
O3071       O  0.58965747  0.51717261  0.64288841    -0.94100
O3072       O  0.64942683  0.68991932  0.75645523    -0.41900
O3073       O  0.63913557  0.61430084  0.65981838    -0.78500
O3074       O  0.67893953  0.64851649  0.71277466    -0.97200
O3075       O  0.68962329  0.59921791  0.73569131    -0.90500
O3076       O  0.64633206  0.56467782  0.67543409    -0.93400
C3077       C  0.57437967  0.63673749  0.76381035     1.00400
C3078       C  0.54133580  0.54352403  0.73077984     1.13300
C3079       C  0.64732431  0.62556289  0.87019553     1.04100
O3080       O  0.70260548  0.68510639  0.80604589    -0.95500
O3081       O  0.73206460  0.66242962  0.75416204    -0.91300
O3082       O  0.73262968  0.64152101  0.69100854    -0.84400
C3083       C  0.74493152  0.65902538  0.72197243     1.10700
O3084       O  0.63318395  0.52274294  0.80139087    -0.97500
Zr3085     Zr  0.65231877  0.55257042  0.74298353     1.88900
O3086       O  0.70091560  0.57648660  0.65010939    -0.74100
O3087       O  0.71637632  0.62480314  0.82216639    -0.53400
O3088       O  0.68870991  0.55148063  0.78744025    -0.98100
O3089       O  0.62306508  0.50203295  0.72376011    -0.55300
O3090       O  0.68174648  0.54073184  0.69438116    -0.74700
C3091       C  0.69665554  0.55193307  0.66292695     0.97700
O3092       O  0.70940437  0.64619442  0.61806747    -0.63500
O3093       O  0.57058025  0.57310021  0.61816717    -0.58300
O3094       O  0.66963548  0.60171631  0.59876856    -0.95000
O3095       O  0.62193872  0.57516557  0.59479515    -0.93400
O3096       O  0.60961138  0.65843815  0.65021095    -0.93700
O3097       O  0.66157429  0.68896145  0.66496915    -0.92500
C3098       C  0.64664551  0.58843576  0.57841279     1.16500
H3099       H  0.57950226  0.60021362  0.70909174     0.32500
H3100       H  0.69363587  0.66721697  0.70734221     0.43300
H3101       H  0.64704897  0.55104523  0.65437404     0.36800
H3102       H  0.65003274  0.58251060  0.81758305     0.33300
H3103       H  0.66560942  0.70517919  0.74335640     0.25100
H3104       H  0.72890840  0.62068942  0.80249544     0.31100
H3105       H  0.68981553  0.53326662  0.77897714     0.37000
H3106       H  0.60742826  0.64335342  0.62847647     0.31400
H3107       H  0.55275514  0.55533615  0.61868946     0.30300
H3108       H  0.57730407  0.51381172  0.61853519     0.32000
H3109       H  0.63378274  0.99058214  0.72205746     0.30900
H3110       H  0.66867829  0.68038280  0.64219375     0.34900
H3111       H  0.71617857  0.66538408  0.63269154     0.27700
H3112       H  0.57018980  0.56392264  0.85110648     0.31900
H3113       H  0.61310375  0.51920087  0.80232392     0.34800
H3114       H  0.56606152  0.58828973  0.63161510     0.27400
H3115       H  0.72662157  0.64335146  0.61237245     0.40200
H3116       H  0.70308204  0.69600938  0.78178028     0.30300
H3117       H  0.63436714  0.69658709  0.75689959     0.37900
H3118       H  0.62402418  0.50053488  0.69335366     0.29800
H3119       H  0.72870518  0.64353225  0.83623314     0.29800
H3120       H  0.59359740  0.55259923  0.84800573     0.30100
C3121       C  0.59273112  0.71305653  0.90803440     0.79300
N3122       N  0.61657498  0.73277896  0.88991104    -0.79000
C3123       C  0.61501950  0.73887103  0.84952032     0.81700
N3124       N  0.59004699  0.72535735  0.82871892    -0.79000
C3125       C  0.56648516  0.70646694  0.84692435     0.81800
N3126       N  0.56833687  0.70065080  0.88629148    -0.80700
C3127       C  0.58896647  0.72965176  0.50886527     0.79300
N3128       N  0.56099052  0.71647010  0.51629874    -0.79000
C3129       C  0.54977752  0.72404533  0.54974653     0.81700
N3130       N  0.56660443  0.74528055  0.57664134    -0.79000
C3131       C  0.59464452  0.75943999  0.57010853     0.81800
N3132       N  0.60614975  0.75131010  0.53621293    -0.80700
Zr3133     Zr  0.89055212  0.64017554  0.69259552     2.17500
O3134       O  0.90328616  0.69076352  0.68273837    -0.52300
O3135       O  0.86692177  0.62517487  0.62647914    -0.75500
O3136       O  0.93022496  0.66124292  0.64870896    -0.82300
O3137       O  0.82508127  0.63201546  0.75147439    -0.84000
O3138       O  0.96017877  0.64113402  0.66127971    -0.79600
O3139       O  0.85745544  0.66060311  0.70707768    -0.91300
O3140       O  0.84844853  0.57657225  0.62404843    -0.77200
O3141       O  0.90284671  0.60189097  0.67172112    -0.86700
O3142       O  0.84966135  0.59712933  0.70373478    -0.86400
O3143       O  0.93123744  0.64715253  0.73289185    -0.73200
O3144       O  0.88191389  0.64280797  0.76446664    -0.85300
Zr3145     Zr  0.89620929  0.56855733  0.80137477     2.26400
Zr3146     Zr  0.94206820  0.60737478  0.71451068     2.06300
Zr3147     Zr  0.84211100  0.59861244  0.77608226     2.10000
Zr3148     Zr  0.86246561  0.55935329  0.68538370     1.78800
O3149       O  0.83020013  0.62138561  0.83624547    -0.94100
O3150       O  0.83132124  0.51908615  0.64004199    -0.41900
O3151       O  0.85531347  0.56023510  0.75854182    -0.78500
O3152       O  0.90173864  0.56365093  0.72747576    -0.97200
O3153       O  0.93631655  0.61185807  0.78771038    -0.90500
O3154       O  0.88206548  0.60628743  0.81733653    -0.93400
C3155       C  0.85237879  0.60044985  0.60868290     1.00400
C3156       C  0.83486055  0.65329737  0.72812150     1.13300
C3157       C  0.95304846  0.65852066  0.64346508     1.04100
O3158       O  0.96124549  0.58852560  0.65795698    -0.95500
O3159       O  0.95892173  0.57210617  0.73262610    -0.91300
O3160       O  0.92947741  0.54569482  0.78157259    -0.84400
C3161       C  0.95041289  0.55097262  0.75629275     1.10700
O3162       O  0.94321937  0.70005139  0.78875838    -0.97500
Zr3163     Zr  0.92230664  0.64964709  0.80449194     1.88900
O3164       O  0.90831952  0.59037570  0.87408708    -0.74100
O3165       O  0.99027312  0.63863329  0.73650592    -0.53400
O3166       O  0.97194935  0.66963068  0.82426075    -0.98100
O3167       O  0.90422119  0.67950741  0.84423795    -0.55300
O3168       O  0.92209440  0.63866195  0.87493969    -0.74700
C3169       C  0.91518203  0.61537760  0.89311700     0.97700
O3170       O  0.89175627  0.52897588  0.84293999    -0.63500
O3171       O  0.79301036  0.56944940  0.75550826    -0.58300
O3172       O  0.84948348  0.53913484  0.82631610    -0.95000
O3173       O  0.82028573  0.56134735  0.82396872    -0.93400
O3174       O  0.82114909  0.52405974  0.71787755    -0.93700
O3175       O  0.88679528  0.53335843  0.65093882    -0.92500
C3176       C  0.82653672  0.54133776  0.83489388     1.16500
H3177       H  0.83333519  0.59573735  0.68877048     0.32500
H3178       H  0.90500882  0.54695482  0.72038133     0.43300
H3179       H  0.87512443  0.60606908  0.84498422     0.36800
H3180       H  0.94673771  0.66477238  0.72685214     0.33300
H3181       H  0.81385774  0.52169845  0.63705253     0.25100
H3182       H  0.99251401  0.65838445  0.73283657     0.31100
H3183       H  0.98227477  0.68074111  0.80073875     0.37000
H3184       H  0.80573093  0.52935114  0.71119524     0.31400
H3185       H  0.78201135  0.57659214  0.77401769     0.30300
H3186       H  0.81010520  0.61708024  0.83209943     0.32000
H3187       H  0.91875979  0.69004122  0.86574020     0.30900
H3188       H  0.90210623  0.54800082  0.63549203     0.34900
H3189       H  0.88850689  0.51241425  0.82333233     0.27700
H3190       H  0.90220077  0.69223375  0.65264572     0.31900
H3191       H  0.93036275  0.70120767  0.76772646     0.34800
H3192       H  0.79087074  0.57559930  0.72801998     0.27400
H3193       H  0.91068142  0.53455025  0.85516427     0.40200
H3194       H  0.98198092  0.59900642  0.66162078     0.30300
H3195       H  0.83993269  0.52250361  0.61242956     0.37900
H3196       H  0.88799092  0.66579874  0.85940609     0.29800
H3197       H  0.99046012  0.63722910  0.76669517     0.29800
H3198       H  0.92358561  0.70120645  0.68994390     0.30100
C3199       C  0.56150877  0.80221297  0.91926650     0.79300
N3200       N  0.53400340  0.78906478  0.90658280    -0.79000
C3201       C  0.52664427  0.77910425  0.86674413     0.81700
N3202       N  0.54735904  0.78266191  0.83911752    -0.79000
C3203       C  0.57478972  0.79567195  0.85061341     0.81800
N3204       N  0.58181048  0.80544399  0.89077572    -0.80700
Zr3205     Zr  0.67667540  0.82917203  0.63931844     2.17500
O3206       O  0.69436684  0.80861654  0.58277155    -0.52300
O3207       O  0.66730062  0.86378302  0.59915137    -0.75500
O3208       O  0.63820048  0.79552760  0.59607261    -0.82300
O3209       O  0.75231268  0.87252181  0.66477674    -0.84000
O3210       O  0.60063025  0.78016103  0.63916282    -0.79600
O3211       O  0.72267466  0.85583008  0.60916556    -0.91300
O3212       O  0.66863270  0.89794425  0.64735472    -0.77200
O3213       O  0.64211274  0.84144064  0.67239502    -0.86700
O3214       O  0.70275463  0.87029308  0.68455124    -0.86400
O3215       O  0.64812752  0.78785700  0.67847541    -0.73200
O3216       O  0.70155591  0.81330971  0.68683865    -0.85300
Zr3217     Zr  0.66725712  0.82997388  0.80342045     2.26400
Zr3218     Zr  0.61375456  0.80121041  0.71143637     2.06300
Zr3219     Zr  0.72854351  0.85475890  0.73013167     2.10000
Zr3220     Zr  0.66845091  0.88233193  0.71689304     1.78800
O3221       O  0.75006215  0.82134800  0.72977014    -0.94100
O3222       O  0.62693265  0.89164857  0.71237297    -0.41900
O3223       O  0.69608733  0.87008922  0.76399211    -0.78500
O3224       O  0.63976961  0.84286346  0.75629873    -0.97200
O3225       O  0.63974429  0.78899167  0.75979246    -0.90500
O3226       O  0.70038156  0.81582147  0.77103771    -0.93400
C3227       C  0.66726962  0.88825905  0.60966368     1.00400
C3228       C  0.74686896  0.87117651  0.62583135     1.13300
C3229       C  0.61219806  0.78005957  0.60354368     1.04100
O3230       O  0.58090706  0.82141423  0.69670161    -0.95500
O3231       O  0.59022027  0.79504950  0.78033751    -0.91300
O3232       O  0.62205172  0.81521806  0.83336219    -0.84400
C3233       C  0.59693220  0.80204427  0.81917277     1.10700
O3234       O  0.70016665  0.75348389  0.69175196    -0.97500
Zr3235     Zr  0.67233331  0.77435866  0.72912114     1.88900
O3236       O  0.65250408  0.78586765  0.84115472    -0.74100
O3237       O  0.57406838  0.75411429  0.71438030    -0.53400
O3238       O  0.64001256  0.72927395  0.69417337    -0.98100
O3239       O  0.69941078  0.75698382  0.77089359    -0.55300
O3240       O  0.64162830  0.75232745  0.78816902    -0.74700
C3241       C  0.63896550  0.75992649  0.82605368     0.97700
O3242       O  0.66713640  0.86438977  0.85807871    -0.63500
O3243       O  0.77610935  0.89146661  0.74675620    -0.58300
O3244       O  0.71007828  0.84945702  0.84603786    -0.95000
O3245       O  0.74374199  0.87492961  0.80085081    -0.93400
O3246       O  0.70594599  0.93109317  0.71797044    -0.93700
O3247       O  0.66225438  0.90977800  0.77652352    -0.92500
C3248       C  0.73478427  0.86854657  0.83772220     1.16500
H3249       H  0.71463515  0.88702507  0.67012219     0.32500
H3250       H  0.62683853  0.84845041  0.77155538     0.43300
H3251       H  0.71157027  0.81198473  0.79100925     0.36800
H3252       H  0.63947899  0.77091004  0.66030590     0.33300
H3253       H  0.63438167  0.91192079  0.70495378     0.25100
H3254       H  0.56275115  0.75122272  0.68900863     0.31100
H3255       H  0.62135387  0.72534844  0.70608462     0.37000
H3256       H  0.71994325  0.93133317  0.73824174     0.31400
H3257       H  0.78750459  0.88070566  0.75057504     0.30300
H3258       H  0.74998029  0.81477202  0.70054169     0.32000
H3259       H  0.69405917  0.75909681  0.79976877     0.30900
H3260       H  0.67693568  0.91128811  0.79650866     0.34900
H3261       H  0.68447838  0.88218322  0.85408653     0.27700
H3262       H  0.68581529  0.81133049  0.55739104     0.31900
H3263       H  0.70612611  0.76419935  0.66641594     0.34800
H3264       H  0.78353539  0.90182224  0.72149356     0.27400
H3265       H  0.65171533  0.86943534  0.85048008     0.40200
H3266       H  0.58317795  0.82488233  0.66695814     0.30300
H3267       H  0.61672625  0.88037037  0.68729084     0.37900
H3268       H  0.71934102  0.77123496  0.76932000     0.29800
H3269       H  0.58279754  0.74059443  0.71042237     0.29800
H3270       H  0.68531760  0.78762191  0.58601031     0.30100
Zr3271     Zr  0.91338673  0.89146019  0.67779372     2.17500
O3272       O  0.95144807  0.91804466  0.63153196    -0.52300
O3273       O  0.88666492  0.91825060  0.66720002    -0.75500
O3274       O  0.90115706  0.87168781  0.60410449    -0.82300
O3275       O  0.94793302  0.94215752  0.77471336    -0.84000
O3276       O  0.87271250  0.82375869  0.60471748    -0.79600
O3277       O  0.94436530  0.94151938  0.70464222    -0.91300
O3278       O  0.85258532  0.90643254  0.71536697    -0.77200
O3279       O  0.86547166  0.85590623  0.68021063    -0.86700
O3280       O  0.89578885  0.89776870  0.74418193    -0.86400
O3281       O  0.91479391  0.84557693  0.66944561    -0.73200
O3282       O  0.94307533  0.88676604  0.72978193    -0.85300
Zr3283     Zr  0.87956098  0.80954264  0.78648463     2.26400
Zr3284     Zr  0.86665323  0.80986731  0.67411060     2.06300
Zr3285     Zr  0.92398556  0.89180884  0.79613909     2.10000
Zr3286     Zr  0.84851989  0.86288985  0.74614117     1.78800
O3287       O  0.97208025  0.90890606  0.82194226    -0.94100
O3288       O  0.80588250  0.84737714  0.70433157    -0.41900
O3289       O  0.87663620  0.85490538  0.79680433    -0.78500
O3290       O  0.84848444  0.81618452  0.73924076    -0.97200
O3291       O  0.89759474  0.80375045  0.72141574    -0.90500
O3292       O  0.92669262  0.84679141  0.78642130    -0.93400
C3293       C  0.86739526  0.92233210  0.68692322     1.00400
C3294       C  0.95285860  0.95494783  0.74040071     1.13300
C3295       C  0.88619250  0.84658847  0.58570443     1.04100
O3296       O  0.81966592  0.79528151  0.64530935    -0.95500
O3297       O  0.83639438  0.76145922  0.69507235    -0.91300
O3298       O  0.85022198  0.76003121  0.76040027    -0.84400
C3299       C  0.83577927  0.74803008  0.72733671     1.10700
O3300       O  0.98060592  0.86230020  0.66926719    -0.97500
Zr3301     Zr  0.94441622  0.84110242  0.72053626     1.88900
O3302       O  0.91117754  0.78785232  0.80492432    -0.74100
O3303       O  0.87604428  0.77475988  0.63104758    -0.53400
O3304       O  0.94989458  0.80486229  0.67479349    -0.98100
O3305       O  0.99171114  0.86780183  0.74989543    -0.55300
O3306       O  0.94934641  0.80752837  0.76399027    -0.74700
C3307       C  0.93551947  0.79076802  0.79193992     0.97700
O3308       O  0.84082264  0.78461118  0.83281774    -0.63500
O3309       O  0.91029268  0.92160313  0.84402737    -0.58300
O3310       O  0.88671427  0.82352229  0.85786500    -0.95000
O3311       O  0.91388137  0.87192777  0.86584189    -0.93400
O3312       O  0.84420827  0.89262251  0.80432819    -0.93700
O3313       O  0.80519539  0.83717079  0.78356870    -0.92500
C3314       C  0.89971566  0.84671099  0.87993409     1.16500
H3315       H  0.89679527  0.91678954  0.74898162     0.32500
H3316       H  0.82943829  0.80161845  0.74212933     0.43300
H3317       H  0.93806396  0.84518450  0.80829559     0.36800
H3318       H  0.92245561  0.84346911  0.64298978     0.33300
H3319       H  0.81005164  0.86200690  0.68374205     0.25100
H3320       H  0.89418602  0.78607331  0.61756890     0.31100
H3321       H  0.93202749  0.78731214  0.67693177     0.37000
H3322       H  0.83602377  0.90468657  0.79265338     0.31400
H3323       H  0.92756314  0.93341461  0.86048772     0.30300
H3324       H  0.97084146  0.91287248  0.85186533     0.32000
H3325       H  0.99079635  0.86056668  0.77765714     0.30900
H3326       H  0.81098496  0.82902154  0.80652909     0.34900
H3327       H  0.82349196  0.77690524  0.81549998     0.27700
H3328       H  0.94264408  0.92500267  0.61074121     0.31900
H3329       H  0.97818996  0.87927040  0.66103238     0.34800
H3330       H  0.90741111  0.93540966  0.82697708     0.27400
H3331       H  0.84318677  0.76748679  0.84048352     0.40200
H3332       H  0.81634205  0.77813647  0.62691083     0.30300
H3333       H  0.80455686  0.83000893  0.68818370     0.37900
H3334       H  0.99378404  0.88769700  0.75513817     0.29800
H3335       H  0.88060153  0.76333343  0.65061179     0.29800
H3336       H  0.95585662  0.90333377  0.61630789     0.30100
C3337       C  0.79282770  0.91273990  0.54056479     0.79300
N3338       N  0.77223487  0.89014361  0.55963468    -0.79000
C3339       C  0.76892522  0.89270266  0.60132350     0.81700
N3340       N  0.78549791  0.91737587  0.62233165    -0.79000
C3341       C  0.80531195  0.93984208  0.60380965     0.81800
N3342       N  0.80918764  0.93720116  0.56291701    -0.80700
C3343       C  0.78476675  0.90188413  0.92770557     0.79300
N3344       N  0.76800523  0.88130506  0.89871246    -0.79000
C3345       C  0.75206222  0.88805255  0.87190258     0.81700
N3346       N  0.75331964  0.91483028  0.87411540    -0.79000
C3347       C  0.76965792  0.93515050  0.90259045     0.81800
N3348       N  0.78525564  0.92835970  0.92870764    -0.80700
C3349       C  0.65212703  0.92511288  0.52154698     0.79300
N3350       N  0.67045853  0.95253828  0.53327035    -0.79000
C3351       C  0.68820949  0.95873963  0.56596612     0.81700
N3352       N  0.68691162  0.93684422  0.58810599    -0.79000
C3353       C  0.66891250  0.90910054  0.57824681     0.81800
N3354       N  0.65109692  0.90297420  0.54458984    -0.80700
C3355       C  0.81930394  0.67081244  0.72567663     0.79300
N3356       N  0.83341426  0.69987215  0.72650478    -0.79000
C3357       C  0.81920664  0.71641829  0.72545439     0.81700
N3358       N  0.79032532  0.70353895  0.72340780    -0.79000
C3359       C  0.77607781  0.67416311  0.72218449     0.81800
N3360       N  0.79074819  0.65810289  0.72365259    -0.80700
C3361       C  0.86066773  0.94582423  0.67460199    -0.07100
C3362       C  0.83853969  0.94977382  0.69450527    -0.18200
C3363       C  0.82266036  0.96030872  0.67278282     0.10100
C3364       C  0.82713853  0.96242529  0.63006189    -0.07000
C3365       C  0.85469228  0.96991824  0.61655200    -0.18200
C3366       C  0.87177969  0.96077678  0.63845815     0.10200
S3367       S  0.79123636  0.96023969  0.69595305    -0.33200
S3368       S  0.90603210  0.96662747  0.61857235    -0.33200
H3369       H  0.90525099  0.98169271  0.58431122     0.28200
H3370       H  0.78288680  0.96987748  0.66122814     0.28200
H3371       H  0.83162770  0.94175170  0.72465155     0.18800
H3372       H  0.86029980  0.97672749  0.58552915     0.18800
C3373       C  0.95062521  0.77592545  0.81114349    -0.07100
C3374       C  0.95308050  0.77720290  0.85415004    -0.18200
C3375       C  0.47612719  0.77440313  0.87344930     0.10100
C3376       C  0.49740348  0.77020661  0.85059510    -0.07000
C3377       C  0.99319124  0.76840470  0.80559121    -0.18200
C3378       C  0.96919566  0.76814797  0.78721893     0.10200
S3379       S  0.47716642  0.77862024  0.92904463    -0.33200
S3380       S  0.96463425  0.76031087  0.73232577    -0.33200
H3381       H  0.93539089  0.75222939  0.73210441     0.28200
H3382       H  0.45802909  0.79099843  0.93305686     0.28200
H3383       H  0.93823579  0.78183884  0.87307058     0.18800
H3384       H  0.00849736  0.76513723  0.78594104     0.18800
C3385       C  0.80580728  0.51791416  0.85725545    -0.07100
C3386       C  0.81354085  0.51341269  0.89627880    -0.18200
C3387       C  0.79815057  0.98830931  0.92038290     0.10100
C3388       C  0.77595265  0.96572094  0.89785514    -0.07000
C3389       C  0.76511563  0.97230254  0.86263982    -0.18200
C3390       C  0.78014778  0.99833477  0.84431837     0.10200
S3391       S  0.80802371  0.98461915  0.97200443    -0.33200
S3392       S  0.76822398  0.00431820  0.79555243    -0.33200
H3393       H  0.74841727  0.47462845  0.78063737     0.28200
H3394       H  0.82567851  0.01393434  0.98080373     0.28200
H3395       H  0.83068361  0.53086531  0.91292046     0.18800
H3396       H  0.74691260  0.95588201  0.84651070     0.18800
C3397       C  0.97429932  0.67936497  0.61922077    -0.07100
C3398       C  0.97495149  0.67436141  0.57665261    -0.18200
C3399       C  0.51763459  0.67656222  0.57388650     0.10100
C3400       C  0.52201672  0.70415257  0.56320168    -0.07000
C3401       C  0.50146081  0.71403131  0.57173101    -0.18200
C3402       C  0.47701227  0.69732327  0.59310272     0.10200
S3403       S  0.54418383  0.66335398  0.56614348    -0.33200
S3404       S  0.45158716  0.71159360  0.60387835    -0.33200
H3405       H  0.01646371  0.73891774  0.69678163     0.28200
H3406       H  0.53730477  0.64683139  0.60102281     0.28200
H3407       H  0.95820917  0.65571623  0.56134487     0.18800
H3408       H  0.50528505  0.73538295  0.56333849     0.18800
C3409       C  0.70358539  0.98889595  0.58373809    -0.07100
C3410       C  0.71456018  0.99296768  0.62417773    -0.18200
C3411       C  0.71156391  0.51173894  0.65328689     0.10100
C3412       C  0.70612673  0.53349647  0.63675300    -0.07000
C3413       C  0.70376863  0.53371084  0.59375464    -0.18200
C3414       C  0.70187910  0.01258920  0.56614423     0.10200
S3415       S  0.71945120  0.51278237  0.70744514    -0.33200
S3416       S  0.69505817  0.01347841  0.51220184    -0.33200
H3417       H  0.70954156  0.99709228  0.49903607     0.28200
H3418       H  0.72837579  0.49067491  0.70459735     0.28200
H3419       H  0.71818703  0.97608775  0.63743392     0.18800
H3420       H  0.70110801  0.55110907  0.58027737     0.18800
C3421       C  0.54192654  0.68640909  0.82147482    -0.07100
C3422       C  0.54491086  0.68972566  0.77896164    -0.18200
C3423       C  0.55121216  0.66991464  0.75482153     0.10100
C3424       C  0.55260780  0.64676350  0.77453162    -0.07000
C3425       C  0.53784258  0.63850672  0.81147506    -0.18200
C3426       C  0.52995339  0.65781392  0.83354574     0.10200
S3427       S  0.55841628  0.67512658  0.70072325    -0.33200
S3428       S  0.51270861  0.64796364  0.88222119    -0.33200
H3429       H  0.50912396  0.67337317  0.88901592     0.28200
H3430       H  0.54402946  0.69239179  0.69673134     0.28200
H3431       H  0.54880578  0.71018754  0.76693664     0.18800
H3432       H  0.53511199  0.61884216  0.82510980     0.18800
C3433       C  0.91120837  0.61846142  0.93836078    -0.07100
C3434       C  0.88759780  0.62324769  0.95043101    -0.18200
C3435       C  0.88668471  0.63722172  0.98862759     0.10100
C3436       C  0.91010327  0.64715928  0.01598051    -0.07000
C3437       C  0.93243618  0.63977217  0.00540708    -0.18200
C3438       C  0.93336849  0.62594314  0.96723569     0.10200
S3439       S  0.85672544  0.64487327  0.99802654    -0.33200
S3440       S  0.96462603  0.62085158  0.95628412    -0.33200
H3441       H  0.95390533  0.60175941  0.92160389     0.28200
H3442       H  0.85118322  0.63257082  0.03650992     0.28200
H3443       H  0.87058454  0.61815880  0.92838427     0.18800
H3444       H  0.95039798  0.64645101  0.02614710     0.18800
C3445       C  0.60759741  0.68869362  0.39977351    -0.07100
C3446       C  0.62470558  0.71825459  0.41023097    -0.18200
C3447       C  0.62066221  0.73224265  0.44649528     0.10100
C3448       C  0.59929002  0.71651985  0.47393750    -0.07000
C3449       C  0.58459905  0.68646094  0.46561703    -0.18200
C3450       C  0.58891064  0.67245906  0.42980591     0.10200
S3451       S  0.64177416  0.77040929  0.45392565    -0.33200
S3452       S  0.57040121  0.63385274  0.42496020    -0.33200
H3453       H  0.59253887  0.63016560  0.40457127     0.28200
H3454       H  0.61876279  0.77658810  0.46386363     0.28200
H3455       H  0.64014871  0.73132794  0.38868337     0.18800
H3456       H  0.56902470  0.67352249  0.48700281     0.18800
C3457       C  0.59083922  0.70416655  0.95123039    -0.07100
C3458       C  0.59962166  0.68301749  0.96124827    -0.18200
C3459       C  0.59065091  0.66806765  0.99792331     0.10100
C3460       C  0.57115760  0.67275294  0.02408890    -0.07000
C3461       C  0.56178830  0.69315993  0.01297482    -0.18200
C3462       C  0.57181761  0.70917120  0.97801958     0.10200
S3463       S  0.60504674  0.64391753  0.01234825    -0.33200
S3464       S  0.55950248  0.73603784  0.96881822    -0.33200
H3465       H  0.58332988  0.75397767  0.94701461     0.28200
H3466       H  0.62923913  0.65608582  0.98807556     0.28200
H3467       H  0.61301429  0.67775790  0.94005228     0.18800
H3468       H  0.54792021  0.69812804  0.03347587     0.18800
C3469       C  0.52637138  0.73569409  0.14140314    -0.07100
C3470       C  0.02685523  0.73226354  0.09639513    -0.18200
C3471       C  0.00127241  0.72677948  0.07704578     0.10100
C3472       C  0.97887658  0.72737016  0.10123646    -0.07000
C3473       C  0.98519427  0.74069043  0.14106796    -0.18200
C3474       C  0.01076245  0.74628523  0.16016197     0.10200
S3475       S  0.99804922  0.71772373  0.02240409    -0.33200
S3476       S  0.50933251  0.75284444  0.21742779    -0.33200
H3477       H  0.53839704  0.76063231  0.22021274     0.28200
H3478       H  0.97863684  0.72920434  0.01564970     0.28200
H3479       H  0.04285114  0.72871328  0.07908324     0.18800
H3480       H  0.96918260  0.74378689  0.15924021     0.18800
C3481       C  0.67623422  0.59765466  0.45345819    -0.07100
C3482       C  0.66103761  0.57004748  0.46871381    -0.18200
C3483       C  0.64846221  0.56604300  0.50768737     0.10100
C3484       C  0.65081234  0.59003183  0.53307655    -0.07000
C3485       C  0.66585184  0.61762089  0.51799293    -0.18200
C3486       C  0.67865468  0.62169941  0.47908560     0.10200
S3487       S  0.63165295  0.52997227  0.52464580    -0.33200
S3488       S  0.69754053  0.65804164  0.46409557    -0.33200
H3489       H  0.72303586  0.65553825  0.45877726     0.28200
H3490       H  0.60876632  0.53334206  0.54282691     0.28200
H3491       H  0.65888051  0.55112759  0.45001505     0.18800
H3492       H  0.66888017  0.63639604  0.53776103     0.18800
C3493       C  0.65042838  0.55675652  0.31290458    -0.07100
C3494       C  0.65792276  0.55835403  0.27108913    -0.18200
C3495       C  0.64121065  0.56330330  0.24239406     0.10100
C3496       C  0.61672387  0.56565096  0.25667200    -0.07000
C3497       C  0.60469709  0.55247276  0.29319126    -0.18200
C3498       C  0.62163994  0.54818950  0.32212943     0.10200
S3499       S  0.65426404  0.57035936  0.19065746    -0.33200
S3500       S  0.60677496  0.53715491  0.37192848    -0.33200
H3501       H  0.62688269  0.52748444  0.38270539     0.28200
H3502       H  0.62822787  0.56483743  0.17235041     0.28200
H3503       H  0.67897087  0.56139247  0.26234580     0.18800
H3504       H  0.58410715  0.55061889  0.30248406     0.18800
C3505       C  0.81812116  0.59708495  0.48701171    -0.07100
C3506       C  0.80135577  0.57885250  0.51696387    -0.18200
C3507       C  0.81162069  0.58007296  0.55707720     0.10100
C3508       C  0.83960861  0.59964314  0.56767249    -0.07000
C3509       C  0.85592283  0.61889433  0.53837198    -0.18200
C3510       C  0.84572690  0.61747311  0.49815848     0.10200
S3511       S  0.78839282  0.55738276  0.59487245    -0.33200
S3512       S  0.86979428  0.64036636  0.46158714    -0.33200
H3513       H  0.86296259  0.61846610  0.43010507     0.28200
H3514       H  0.76375717  0.54607113  0.57034963     0.28200
H3515       H  0.78015066  0.56326296  0.50860289     0.18800
H3516       H  0.87735348  0.63420074  0.54619965     0.18800
C3517       C  0.79959652  0.91152279  0.49643642    -0.07100
C3518       C  0.82667431  0.91401791  0.48591601    -0.18200
C3519       C  0.83685151  0.91892296  0.44546970     0.10100
C3520       C  0.82030131  0.92302708  0.41497172    -0.07000
C3521       C  0.79344027  0.92109015  0.42615702    -0.18200
C3522       C  0.78289467  0.91507671  0.46591532     0.10200
S3523       S  0.87032071  0.91845689  0.43448376    -0.33200
S3524       S  0.74876797  0.91420194  0.47651433    -0.33200
H3525       H  0.73988740  0.89064334  0.50147538     0.28200
H3526       H  0.86096574  0.90135951  0.39758214     0.28200
H3527       H  0.84004531  0.91217149  0.50955323     0.18800
H3528       H  0.78009697  0.92379971  0.40333450     0.18800
C3529       C  0.80387432  0.89777579  0.95803009    -0.07100
C3530       C  0.82842276  0.92235779  0.97134357    -0.18200
C3531       C  0.84320037  0.92338995  0.00753628     0.10100
C3532       C  0.83419712  0.89899898  0.03109734    -0.07000
C3533       C  0.81246072  0.87309819  0.01412754    -0.18200
C3534       C  0.79678340  0.87241490  0.97889911     0.15000
S3535       S  0.87038022  0.95768708  0.02527403    -0.33200
S3536       S  0.76602587  0.83964722  0.96560285    -0.33200
H3537       H  0.74770923  0.85306753  0.96563060     0.28200
H3538       H  0.88882058  0.94603898  0.03666180     0.28200
H3539       H  0.83502189  0.94191307  0.95511667     0.18800
H3540       H  0.80518817  0.85396582  0.03150346     0.18800
C3541       C  0.77254288  0.98165202  0.31850931    -0.07100
C3542       C  0.78128194  0.48295952  0.35713558    -0.18200
C3543       C  0.78253080  0.50588584  0.38388175     0.10100
C3544       C  0.77705445  0.52801588  0.36788625    -0.07000
C3545       C  0.76674419  0.52411428  0.32705701    -0.18200
C3546       C  0.76428398  0.00166825  0.30249853     0.10200
S3547       S  0.79242687  0.50670923  0.43712750    -0.33200
S3548       S  0.75557310  0.00078298  0.24877456    -0.33200
H3549       H  0.74819490  0.97135819  0.24046067     0.28200
H3550       H  0.80390973  0.48665861  0.43176638     0.28200
H3551       H  0.78771146  0.46730335  0.36819147     0.18800
H3552       H  0.76100391  0.53984061  0.31441044     0.18800
C3553       C  0.89410727  0.81703225  0.46237885    -0.07100
C3554       C  0.86810080  0.80474652  0.48213758    -0.18200
C3555       C  0.86333150  0.81714299  0.51941777     0.10100
C3556       C  0.88561743  0.84143843  0.53960988    -0.07000
C3557       C  0.91007829  0.85599643  0.51708963    -0.18200
C3558       C  0.91406229  0.84476610  0.47812718     0.10200
S3559       S  0.82838120  0.80025936  0.54029974    -0.33200
S3560       S  0.94456664  0.86666761  0.44901366    -0.33200
H3561       H  0.95188813  0.89242132  0.47322898     0.28200
H3562       H  0.83023862  0.82506902  0.56303537     0.28200
H3563       H  0.85173398  0.78468072  0.46953584     0.18800
H3564       H  0.92686657  0.87522167  0.53102113     0.18800
C3565       C  0.67737827  0.63152718  0.99410559    -0.07100
C3566       C  0.64971658  0.61104818  0.98306496    -0.18200
C3567       C  0.63712988  0.61059707  0.94480101     0.10100
C3568       C  0.65262311  0.63084797  0.91604614    -0.07000
C3569       C  0.67840184  0.65381927  0.92984467    -0.18200
C3570       C  0.69104268  0.65412085  0.96782287     0.10200
S3571       S  0.60200363  0.58333269  0.93294856    -0.33200
S3572       S  0.72585666  0.68213091  0.97854159    -0.33200
H3573       H  0.73754733  0.66309397  0.98711031     0.28200
H3574       H  0.59549919  0.57341741  0.97286889     0.28200
H3575       H  0.63843767  0.59419237  0.00371483     0.18800
H3576       H  0.69030198  0.67043585  0.90912695     0.18800
C3577       C  0.57558251  0.84158331  0.04508868    -0.07100
C3578       C  0.59703933  0.85213725  0.01564605    -0.18200
C3579       C  0.59402691  0.83919246  0.97526255     0.10100
C3580       C  0.56856313  0.81495881  0.96308283    -0.07000
C3581       C  0.54795667  0.80342939  0.99342402    -0.18200
C3582       C  0.55132434  0.81588969  0.03378982     0.10200
S3583       S  0.62243926  0.85528996  0.93953099    -0.33200
S3584       S  0.52403248  0.79715552  0.06959572    -0.33200
H3585       H  0.54323001  0.80030634  0.10138633     0.28200
H3586       H  0.64185167  0.87594863  0.96745338     0.28200
H3587       H  0.61592622  0.87139931  0.02381995     0.18800
H3588       H  0.52881864  0.78425589  0.98571678     0.18800
C3589       C  0.63258659  0.92155496  0.48554608    -0.07100
C3590       C  0.62243454  0.94269969  0.48181129    -0.18200
C3591       C  0.60996116  0.94555232  0.44507084     0.10100
C3592       C  0.60774620  0.92725068  0.40989130    -0.07000
C3593       C  0.61625469  0.90500856  0.41440948    -0.18200
C3594       C  0.62812400  0.90175539  0.45146535     0.10200
S3595       S  0.59981166  0.97469120  0.44430572    -0.33200
S3596       S  0.64019407  0.87405658  0.45174963    -0.33200
H3597       H  0.62566600  0.86278000  0.48792845     0.28200
H3598       H  0.58010993  0.96301035  0.41188490     0.28200
H3599       H  0.62541537  0.95818308  0.50740948     0.18800
H3600       H  0.61492554  0.89074379  0.38792240     0.18800
C3601       C  0.02036516  0.83682878  0.35344264    -0.07100
C3602       C  0.00561781  0.80803898  0.33931889    -0.18200
C3603       C  0.97990196  0.79048121  0.35696900     0.10100
C3604       C  0.96870222  0.80262643  0.38835828    -0.07000
C3605       C  0.98645310  0.82957817  0.40721277    -0.18200
C3606       C  0.01198830  0.84690840  0.38977957     0.10200
S3607       S  0.96175124  0.75335104  0.33810447    -0.33200
S3608       S  0.52833908  0.87484429  0.41636355    -0.33200
H3609       H  0.55427911  0.87620552  0.40232954     0.28200
H3610       H  0.98433589  0.75236944  0.31533646     0.28200
H3611       H  0.01286066  0.80011902  0.31217717     0.18800
H3612       H  0.97961589  0.83835678  0.43377549     0.18800
C3613       C  0.65715201  0.49952816  0.08979165    -0.07100
C3614       C  0.68435485  0.51656742  0.10535407    -0.18200
C3615       C  0.69947238  0.54476726  0.09369300     0.10100
C3616       C  0.68678114  0.55625900  0.06620990    -0.07000
C3617       C  0.66114844  0.53757703  0.04661292    -0.18200
C3618       C  0.64617921  0.50951124  0.05835495     0.10200
S3619       S  0.73401118  0.56490915  0.11664112    -0.33200
S3620       S  0.61391067  0.98460850  0.03951928    -0.33200
H3621       H  0.61302549  0.95808756  0.04946773     0.28200
H3622       H  0.74582793  0.57987265  0.08122027     0.28200
H3623       H  0.69291007  0.50873764  0.12931083     0.18800
H3624       H  0.65138269  0.54536269  0.02430969     0.18800
C3625       C  0.88591131  0.81019623  0.99671426    -0.07100
C3626       C  0.86855472  0.82276182  0.98393842    -0.18200
C3627       C  0.87463423  0.83846209  0.94809311     0.10100
C3628       C  0.89859648  0.84189491  0.92438064    -0.07000
C3629       C  0.91619872  0.83000153  0.93785077    -0.18200
C3630       C  0.91014111  0.81428509  0.97313484     0.10200
S3631       S  0.85099709  0.85348890  0.93381604    -0.33200
S3632       S  0.93462013  0.80015725  0.98692109    -0.33200
H3633       H  0.91448453  0.77586775  0.00536003     0.28200
H3634       H  0.87000838  0.87419474  0.90853019     0.28200
H3635       H  0.85088599  0.82137215  0.00277846     0.18800
H3636       H  0.93398783  0.83143334  0.91919370     0.18800
C3637       C  0.93160200  0.87643368  0.17910180    -0.07100
C3638       C  0.94490787  0.88370238  0.14100798    -0.18200
C3639       C  0.94672298  0.86214377  0.11495839     0.10100
C3640       C  0.93369421  0.83356786  0.12765539    -0.07000
C3641       C  0.93169107  0.82987909  0.17015904    -0.18200
C3642       C  0.93108227  0.85183143  0.19664779     0.10200
S3643       S  0.95974507  0.87109581  0.06365954    -0.33200
S3644       S  0.92550943  0.84583100  0.25064658    -0.33200
H3645       H  0.93478602  0.87516277  0.26258433     0.28200
H3646       H  0.96484025  0.84660144  0.05656819     0.28200
H3647       H  0.94921467  0.90422186  0.12870268     0.18800
H3648       H  0.92545409  0.80873953  0.18164854     0.18800
loop_ 
_geom_bond_atom_site_label_1 
_geom_bond_atom_site_label_2 
_geom_bond_distance 
_geom_bond_site_symmetry_2 
_ccdc_geom_bond_type 
C1           C62   1.529       .  S
C1          N914   1.375       .  A
C1         N1830   1.374   1_455  A
N2            C3   1.371       .  A
N2          C913   1.373   1_545  A
C3          C265   1.523       .  S
C3         N1828   1.372   1_455  A
N4         C1827   1.372       .  A
N4          C917   1.376   1_545  A
C5          C187   1.516       .  S
C5            N6   1.380       .  A
C5          N916   1.375       .  A
N6         C1825   1.375       .  A
C7           C43   1.463       .  S
C7            N8   1.352       .  A
C7           N12   1.359       .  A
N8            C9   1.352       .  A
C9          C284   1.476       .  S
C9           N10   1.367       .  A
N10          C11   1.370       .  A
C11         C206   1.477       .  S
C11          N12   1.362       .  A
C13         C889   1.475   1_554  S
C13          N14   1.374       .  A
C13          N18   1.351       .  A
N14          C15   1.372       .  A
C15         C133   1.479       .  S
C15          N16   1.356       .  A
N16          C17   1.353       .  A
C17         C904   1.478       .  S
C17          N18   1.345       .  A
Zr19         O20   2.442       .  S
Zr19         O21   2.469       .  S
Zr19         O22   2.454       .  S
Zr19         O25   2.435       .  S
Zr19         O27   2.381       .  S
Zr19         O28   2.389       .  S
Zr19         O29   2.416       .  S
Zr19         O30   2.419       .  S
O20          H76   0.990       .  S
O20          H84   0.991       .  S
O21          C41   1.290       .  A
O22          C43   1.285       .  A
O23         Zr33   2.399       .  S
O23          C42   1.278       .  A
O24         Zr32   2.416       .  S
O24          C43   1.281       .  A
O25          C42   1.283       .  A
O26         Zr34   2.440       .  S
O26          C41   1.284       .  A
O27         Zr32   2.386       .  S
O27         Zr34   2.371       .  S
O28         Zr33   2.395       .  S
O28         Zr34   2.364       .  S
O28          H63   0.965       .  S
O29         Zr32   2.407       .  S
O29         Zr49   2.392       .  S
O29          H66   0.964       .  S
O30         Zr33   2.395       .  S
O30         Zr49   2.393       .  S
Zr31         O56   2.441       .  S
Zr31         O50   2.535       .  S
Zr31         O58   2.565       .  S
Zr31         O46   2.434       .  S
Zr31         O37   2.420       .  S
Zr31         O38   2.445       .  S
Zr31         O39   2.362       .  S
Zr31         O40   2.391       .  S
Zr32         O51   2.436       .  S
Zr32         O44   2.424       .  S
Zr32         O45   2.424       .  S
Zr32         O38   2.405       .  S
Zr32         O39   2.358       .  S
Zr33         O35   2.411       .  S
Zr33         O57   2.441       .  S
Zr33         O59   2.422       .  S
Zr33         O37   2.383       .  S
Zr33         O40   2.413       .  S
Zr34         O60   2.435       .  S
Zr34         O61   2.423   1_455  S
Zr34         O36   2.442       .  S
Zr34         O37   2.417       .  S
Zr34         O38   2.387       .  S
O35         H984   0.991       .  S
O36          H67   0.990       .  S
O36          H81   0.990       .  S
O38          H64   0.964       .  S
O39         Zr49   2.346       .  S
O40         Zr49   2.398       .  S
O40          H65   0.966       .  S
C41         C841   1.516       .  S
C42        C1789   1.461       .  S
O44          H80   0.990       .  S
O45          C47   1.283       .  A
O46          C47   1.288       .  A
C47        C2689   1.465       .  S
O48         Zr49   2.436       .  S
O48          H77   0.990       .  S
Zr49         O52   2.438       .  S
Zr49         O53   2.421       .  S
Zr49         O54   2.430       .  S
O50          C55   1.303       .  A
O51          H68   0.990       .  S
O51          H83   0.990       .  S
O52          H69   0.990       .  S
O53          H73   0.990       .  S
O53          H82   0.989       .  S
O54          C55   1.283       .  A
C55         C856   1.508       .  S
O56          H75   0.990       .  S
O56        H1903   0.990   1_455  S
O57          H71   0.989       .  S
O57          H78   0.990       .  S
O58          C62   1.308       .  A
O59          C62   1.280       .  A
O60          H70   0.990       .  S
O61        H1898   0.990       .  S
H72         O947   0.990       .  S
H74        O1885   0.990       .  S
H79        O1880   0.990       .  S
C85         C829   1.498   1_554  S
C85          N86   1.377       .  A
C85          N90   1.356       .  A
N86          C87   1.374       .  A
C87         C125   1.480       .  S
C87          N88   1.353       .  A
N88          C89   1.349       .  A
C89         C880   1.486       .  S
C89          N90   1.352       .  A
C91         C817   1.517       .  S
C91          N92   1.378       .  A
C91          N96   1.356       .  A
N92          C93   1.380       .  A
C93         C120   1.489       .  S
C93          N94   1.351       .  A
N94          C95   1.350       .  A
C95         C868   1.484       .  S
C95          N96   1.356       .  A
Zr97         O98   2.436       .  S
Zr97         O99   2.453       .  S
Zr97        O100   2.461       .  S
Zr97        O103   2.425       .  S
Zr97        O105   2.368       .  S
Zr97        O106   2.409       .  S
Zr97        O107   2.427       .  S
Zr97        O108   2.406       .  S
O98         H154   0.990       .  S
O98         H162   0.990       .  S
O99         C119   1.285       .  A
O100        C121   1.285       .  A
O101       Zr111   2.498       .  S
O101        C120   1.301       .  A
O102       Zr110   2.463       .  S
O102        C121   1.294       .  A
O103        C120   1.281       .  A
O104       Zr112   2.434       .  S
O104        C119   1.287       .  A
O105       Zr110   2.368       .  S
O105       Zr112   2.348       .  S
O106       Zr111   2.393       .  S
O106       Zr112   2.390       .  S
O106        H141   0.965       .  S
O107       Zr110   2.388       .  S
O107       Zr127   2.428       .  S
O107        H144   0.966       .  S
O108       Zr111   2.380       .  S
O108       Zr127   2.387       .  S
Zr109       O134   2.442       .  S
Zr109       O128   2.466       .  S
Zr109       O136   2.420       .  S
Zr109       O124   2.465       .  S
Zr109       O115   2.418       .  S
Zr109       O116   2.405       .  S
Zr109       O117   2.385       .  S
Zr109       O118   2.394       .  S
Zr110       O129   2.435       .  S
Zr110       O122   2.421       .  S
Zr110       O123   2.447       .  S
Zr110       O116   2.397       .  S
Zr110       O117   2.400       .  S
Zr111       O113   2.437       .  S
Zr111       O135   2.437       .  S
Zr111       O137   2.496       .  S
Zr111       O115   2.397       .  S
Zr111       O118   2.381       .  S
Zr112       O138   2.434       .  S
Zr112       O139   2.435       .  S
Zr112       O114   2.440       .  S
Zr112       O115   2.387       .  S
Zr112       O116   2.405       .  S
O113        H150   0.990       .  S
O114        H145   0.990       .  S
O114        H159   0.990       .  S
O116        H142   0.966       .  S
O117       Zr127   2.376       .  S
O118       Zr127   2.386       .  S
O118        H143   0.964       .  S
C119        C233   1.483       .  S
C121        C237   1.493       .  S
O122        H158   0.991       .  S
O123        C125   1.287       .  A
O124        C125   1.287       .  A
O126       Zr127   2.434       .  S
O126        H155   0.991       .  S
Zr127       O130   2.440       .  S
Zr127       O131   2.439       .  S
Zr127       O132   2.448       .  S
O128        C133   1.287       .  A
O129        H146   0.990       .  S
O129        H161   0.989       .  S
O130        H147   0.990       .  S
O131        H151   0.990       .  S
O131        H160   0.990       .  S
O132        C133   1.288       .  A
O134        H153   0.991       .  S
O134        H157   0.990       .  S
O135        H149   0.990       .  S
O135        H156   0.990       .  S
O136        C140   1.280       .  A
O137        C140   1.299       .  A
O138        H148   0.990       .  S
O139        H152   0.990       .  S
C140        C311   1.489       .  S
Zr163       O164   2.440       .  S
Zr163       O165   2.415       .  S
Zr163       O166   2.480       .  S
Zr163       O169   2.534       .  S
Zr163       O171   2.387       .  S
Zr163       O172   2.388       .  S
Zr163       O173   2.420       .  S
Zr163       O174   2.402       .  S
O164        H220   0.990       .  S
O164        H228   0.989       .  S
O165        C185   1.284       .  A
O166        C187   1.294       .  A
O167       Zr177   2.369       .  S
O167        C186   1.274       .  A
O168       Zr176   2.504       .  S
O168        C187   1.299       .  A
O169        C186   1.305       .  A
O170       Zr178   2.421       .  S
O170        C185   1.282       .  A
O171       Zr176   2.379       .  S
O171       Zr178   2.354       .  S
O172       Zr177   2.399       .  S
O172       Zr178   2.374       .  S
O172        H207   0.966       .  S
O173       Zr176   2.422       .  S
O173       Zr193   2.396       .  S
O173        H210   0.966       .  S
O174       Zr177   2.407       .  S
O174       Zr193   2.394       .  S
Zr175       O200   2.439       .  S
Zr175       O194   2.425       .  S
Zr175       O202   2.450       .  S
Zr175       O190   2.382       .  S
Zr175       O181   2.377       .  S
Zr175       O182   2.415       .  S
Zr175       O183   2.390       .  S
Zr175       O184   2.369       .  S
Zr176       O195   2.436       .  S
Zr176       O188   2.435       .  S
Zr176       O189   2.504       .  S
Zr176       O182   2.408       .  S
Zr176       O183   2.390       .  S
Zr177       O179   2.434       .  S
Zr177       O201   2.439       .  S
Zr177       O203   2.440       .  S
Zr177       O181   2.364       .  S
Zr177       O184   2.380       .  S
Zr178       O204   2.439       .  S
Zr178       O205   2.429       .  S
Zr178       O180   2.435       .  S
Zr178       O181   2.394       .  S
Zr178       O182   2.385       .  S
O179        H216   0.990       .  S
O180        H211   0.990       .  S
O180        H225   0.990       .  S
O182        H208   0.965       .  S
O183       Zr193   2.373       .  S
O184       Zr193   2.386       .  S
O184        H209   0.966       .  S
C185        C901   1.477       .  S
C186        C796   1.504       .  S
O188        H224   0.990       .  S
O189        C191   1.299       .  A
O190        C191   1.275       .  A
C191        C784   1.490       .  S
O192       Zr193   2.437       .  S
O192       H1133   0.990       .  S
Zr193       O196   2.438       .  S
Zr193       O197   2.439       .  S
Zr193       O198   2.420       .  S
O194        C199   1.282       .  A
O195        H212   0.990       .  S
O195        H227   0.990       .  S
O196       H1125   0.990       .  S
O197        H226   0.989       .  S
O197       H1129   0.990       .  S
O198        C199   1.282       .  A
C199        C805   1.469       .  S
O200        H219   0.990       .  S
O200        H223   0.990       .  S
O201        H215   0.990       .  S
O201        H222   0.990       .  S
O202        C206   1.287       .  A
O203        C206   1.285       .  A
O204        H214   0.990       .  S
O205        H218   0.990       .  S
H213       O1108   0.990       .  S
H217       O1109   0.990       .  S
H221       O1104   0.990       .  S
C229        C769   1.498       .  S
C229        N230   1.364       .  A
C229        N234   1.375       .  A
N230        C231   1.356       .  A
C231        C808   1.497       .  S
C231        N232   1.349       .  A
N232        C233   1.352       .  A
C233        N234   1.369       .  A
C235        C745   1.500       .  S
C235        N236   1.382       .  A
C235        N240   1.357       .  A
N236        C237   1.377       .  A
C237        N238   1.352       .  A
N238        C239   1.350       .  A
C239        C757   1.480       .  S
C239        N240   1.348       .  A
Zr241       O242   2.439       .  S
Zr241       O243   2.409       .  S
Zr241       O244   2.461       .  S
Zr241       O247   2.501       .  S
Zr241       O249   2.391       .  S
Zr241       O250   2.390       .  S
Zr241       O251   2.417       .  S
Zr241       O252   2.389       .  S
O242        H298   0.990       .  S
O242        H306   0.990       .  S
O243        C263   1.283       .  A
O244        C265   1.289       .  A
O245       Zr255   2.386       .  S
O245        C264   1.275       .  A
O246       Zr254   2.534       .  S
O246        C265   1.305       .  A
O247        C264   1.298       .  A
O248       Zr256   2.420       .  S
O248        C263   1.278       .  A
O249       Zr254   2.388       .  S
O249       Zr256   2.361       .  S
O250       Zr255   2.404       .  S
O250       Zr256   2.376       .  S
O250        H285   0.966       .  S
O251       Zr254   2.429       .  S
O251       Zr271   2.396       .  S
O251        H288   0.966       .  S
O252       Zr255   2.408       .  S
O252       Zr271   2.374       .  S
Zr253       O278   2.439       .  S
Zr253       O272   2.439       .  S
Zr253       O280   2.435       .  S
Zr253       O268   2.349       .  S
Zr253       O259   2.386       .  S
Zr253       O260   2.414       .  S
Zr253       O261   2.392       .  S
Zr253       O262   2.359       .  S
Zr254       O273   2.435       .  S
Zr254       O266   2.434       .  S
Zr254       O267   2.551       .  S
Zr254       O260   2.407       .  S
Zr254       O261   2.394       .  S
Zr255       O257   2.436       .  S
Zr255       O279   2.440       .  S
Zr255       O281   2.454       .  S
Zr255       O259   2.373       .  S
Zr255       O262   2.379       .  S
Zr256       O282   2.431       .  S
Zr256       O283   2.436       .  S
Zr256       O258   2.437       .  S
Zr256       O259   2.405       .  S
Zr256       O260   2.391       .  S
O257        H294   0.990       .  S
O258        H289   0.990       .  S
O258        H303   0.990       .  S
O260        H286   0.965       .  S
O261       Zr271   2.379       .  S
O262       Zr271   2.385       .  S
O262        H287   0.966       .  S
C263        C760   1.478       .  S
C264        C709   1.501       .  S
O266        H302   0.990       .  S
O267        C269   1.308       .  A
O268        C269   1.270       .  A
C269        C724   1.493       .  S
O270       Zr271   2.437       .  S
O270       H2123   0.990       .  S
Zr271       O275   2.441       .  S
Zr271      O2098   2.434   1_455  S
Zr271       O276   2.397       .  S
O272        C277   1.285       .  A
O273        H290   0.990   1_455  S
O273        H305   0.990   1_455  S
O274      Zr2095   2.436       .  S
O274        H291   0.989       .  S
O275        H304   0.990       .  S
O275       H2119   0.989       .  S
O276        C277   1.279       .  A
C277        C733   1.479       .  S
O278        H297   0.990       .  S
O278        H301   0.990       .  S
O279        H293   0.989       .  S
O279        H300   0.990       .  S
O280        C284   1.284       .  A
O281        C284   1.286       .  A
O282        H292   0.989       .  S
O283        H296   0.990       .  S
H295       O2099   0.990       .  S
H299       O2094   0.990       .  S
C307        C700   1.509       .  S
C307        N308   1.356       .  A
C307        N312   1.374       .  A
N308        C309   1.354       .  A
C309        C736   1.485       .  S
C309        N310   1.357       .  A
N310        C311   1.354       .  A
C311        N312   1.376       .  A
C313        C425   1.510       .  S
C313        N314   1.365       .  A
C313       N1230   1.372   1_545  A
N314       C2139   1.364       .  A
C315        C342   1.523       .  S
C315       N2138   1.372   1_455  A
C315       N2140   1.373   1_455  A
N316       C2139   1.369   1_565  A
N316       C1229   1.372       .  A
C317        C558   1.516       .  S
C317        N318   1.379       .  A
C317       N1228   1.375       .  A
N318       C1225   1.374       .  A
Zr319       O320   2.435       .  S
Zr319       O321   2.439       .  S
Zr319       O322   2.503       .  S
Zr319       O325   2.449       .  S
Zr319       O327   2.389       .  S
Zr319       O328   2.395       .  S
Zr319       O329   2.409       .  S
Zr319       O330   2.419       .  S
O320        H376   0.990       .  S
O320        H384   0.990       .  S
O321        C341   1.287       .  A
O322        C343   1.298       .  A
O323       Zr333   2.545       .  S
O323        C342   1.306       .  A
O324       Zr332   2.389       .  S
O324        C343   1.278       .  A
O325        C342   1.288       .  A
O326       Zr334   2.400       .  S
O326        C341   1.278       .  A
O327       Zr332   2.400       .  S
O327       Zr334   2.381       .  S
O328       Zr333   2.375       .  S
O328       Zr334   2.375       .  S
O328        H363   0.965       .  S
O329       Zr332   2.404       .  S
O329       Zr349   2.396       .  S
O329        H366   0.966       .  S
O330       Zr333   2.404       .  S
O330       Zr349   2.409       .  S
Zr331       O356   2.439       .  S
Zr331       O350   2.424       .  S
Zr331       O358   2.365       .  S
Zr331       O346   2.448       .  S
Zr331       O337   2.406       .  S
Zr331       O338   2.387       .  S
Zr331       O339   2.365       .  S
Zr331       O340   2.400       .  S
Zr332       O351   2.437       .  S
Zr332       O344   2.436       .  S
Zr332       O345   2.444       .  S
Zr332       O338   2.380       .  S
Zr332       O339   2.388       .  S
Zr333       O335   2.435       .  S
Zr333       O357   2.437       .  S
Zr333       O359   2.525       .  S
Zr333       O337   2.403       .  S
Zr333       O340   2.397       .  S
Zr334       O360   2.434       .  S
Zr334       O361   2.434       .  S
Zr334       O336   2.432       .  S
Zr334       O337   2.376       .  S
Zr334       O338   2.396       .  S
O335        H372   0.990       .  S
O336        H367   0.990       .  S
O336        H381   0.989       .  S
O338        H364   0.967       .  S
O339       Zr349   2.379       .  S
O340       Zr349   2.372       .  S
O340        H365   0.965       .  S
C341        C688   1.478       .  S
C343        C832   1.507       .  S
O344        H380   0.990       .  S
O345        C347   1.284       .  A
O346        C347   1.285       .  A
C347        C623   1.475       .  S
O348       Zr349   2.437       .  S
O348        H377   0.990       .  S
Zr349       O352   2.435       .  S
Zr349       O353   2.438       .  S
Zr349       O354   2.440       .  S
O350        C355   1.282       .  A
O351        H368   0.990       .  S
O351        H383   0.990       .  S
O352        H369   0.990       .  S
O353        H382   0.990       .  S
O353       H1285   0.990   1_545  S
O354        C355   1.286       .  A
C355        C676   1.481       .  S
O356        H375   0.990       .  S
O356        H379   0.990       .  S
O357        H371   0.990       .  S
O357        H378   0.990       .  S
O358        C362   1.273       .  A
O359        C362   1.304       .  A
O360        H370   0.990       .  S
O361        H374   0.990       .  S
C362        C748   1.488       .  S
H373       O1265   0.991       .  S
C385        C721   1.486       .  S
C385        N386   1.377       .  A
C385        N390   1.349       .  A
N386        C387   1.376       .  A
C387        C505   1.485       .  S
C387        N388   1.357       .  A
N388        C389   1.354       .  A
C389        C685   1.482       .  S
C389        N390   1.346       .  A
C391        C712   1.487       .  S
C391        N392   1.352       .  A
C391        N396   1.369       .  A
N392        C393   1.348       .  A
C393        C664   1.464       .  S
C393        N394   1.355       .  A
N394        C395   1.351       .  A
C395        C493   1.478       .  S
C395        N396   1.371       .  A
Zr397       O398   2.434       .  S
Zr397       O399   2.428       .  S
Zr397       O400   2.404       .  S
Zr397       O403   2.407       .  S
Zr397       O405   2.381       .  S
Zr397       O406   2.380       .  S
Zr397       O407   2.403       .  S
Zr397       O408   2.392       .  S
O398        H454   0.990       .  S
O398        H462   0.989       .  S
O399        C419   1.283       .  A
O400        C421   1.278       .  A
O401       Zr411   2.441       .  S
O401        C420   1.285       .  A
O402       Zr410   2.408       .  S
O402        C421   1.283       .  A
O403        C420   1.280       .  A
O404       Zr412   2.482       .  S
O404        C419   1.291       .  A
O405       Zr410   2.395       .  S
O405       Zr412   2.355       .  S
O406       Zr411   2.385       .  S
O406       Zr412   2.356       .  S
O406        H441   0.966       .  S
O407       Zr410   2.391       .  S
O407       Zr427   2.388       .  S
O407        H444   0.973       .  S
O408       Zr411   2.389       .  S
O408       Zr427   2.393       .  S
Zr409       O434   2.446       .  S
Zr409       O428   2.520       .  S
Zr409       O436   2.399       .  S
Zr409       O424   2.531       .  S
Zr409       O415   2.443       .  S
Zr409       O416   2.427       .  S
Zr409       O417   2.377       .  S
Zr409       O418   2.398       .  S
Zr410       O429   2.424       .  S
Zr410       O422   2.436       .  S
Zr410       O423   2.430       .  S
Zr410       O416   2.392       .  S
Zr410       O417   2.401       .  S
Zr411       O413   2.438       .  S
Zr411       O435   2.437       .  S
Zr411       O437   2.438       .  S
Zr411       O415   2.402       .  S
Zr411       O418   2.372       .  S
Zr412       O438   2.428       .  S
Zr412       O439   2.438       .  S
Zr412       O414   2.435       .  S
Zr412       O415   2.405       .  S
Zr412       O416   2.419       .  S
O413        H450   0.990       .  S
O414        H445   0.989       .  S
O414        H459   0.990       .  S
O416        H442   0.965       .  S
O417       Zr427   2.391       .  S
O418       Zr427   2.375       .  S
O418        H443   0.963       .  S
C419        C772   1.502       .  S
C420        C619   1.458       .  S
C421        C661   1.468       .  S
O422        H458   0.990       .  S
O423        C425   1.283       .  A
O424        C425   1.299       .  A
O426       Zr427   2.432       .  S
O426        H455   0.989       .  S
Zr427       O430   2.433       .  S
Zr427       O431   2.438       .  S
Zr427       O432   2.406       .  S
O428        C433   1.299       .  A
O429        H446   0.989       .  S
O429        H461   0.990       .  S
O430        H447   0.990       .  S
O431        H451   0.991       .  S
O431        H460   0.990       .  S
O432        C433   1.277       .  A
C433        C697   1.496       .  S
O434        H453   0.991       .  S
O434        H457   0.991       .  S
O435        H449   0.990       .  S
O435        H456   0.990       .  S
O436        C440   1.280       .  A
O437        C440   1.284       .  A
O438        H448   0.990       .  S
O439        H452   0.990       .  S
C440        C649   1.457       .  S
C463        C844   1.516       .  S
C463        N464   1.363       .  A
C463        N468   1.365       .  A
N464        C465   1.360       .  A
C465        C640   1.489   1_455  S
C465        N466   1.357       .  A
N466        C467   1.349       .  A
C467        C497   1.477       .  S
C467        N468   1.368       .  A
Zr469       O470   2.441       .  S
Zr469       O471   2.485       .  S
Zr469       O472   2.413       .  S
Zr469       O475   2.435       .  S
Zr469       O477   2.393       .  S
Zr469       O478   2.389       .  S
Zr469       O479   2.428       .  S
Zr469       O480   2.427       .  S
O470        H526   0.990       .  S
O470        H534   0.990       .  S
O471        C491   1.291       .  A
O472        C493   1.279       .  A
O473       Zr483   2.456       .  S
O473        C492   1.294       .  A
O474       Zr482   2.496       .  S
O474        C493   1.299       .  A
O475        C492   1.281       .  A
O476       Zr484   2.450       .  S
O476        C491   1.289       .  A
O477       Zr482   2.389       .  S
O477       Zr484   2.377       .  S
O478       Zr483   2.402       .  S
O478       Zr484   2.348       .  S
O478        H513   0.965       .  S
O479       Zr482   2.407       .  S
O479       Zr499   2.393       .  S
O479        H516   0.962       .  S
O480       Zr483   2.376       .  S
O480       Zr499   2.425       .  S
Zr481       O506   2.444       .  S
Zr481       O500   2.452       .  S
Zr481       O508   2.442       .  S
Zr481       O496   2.393       .  S
Zr481       O487   2.415       .  S
Zr481       O488   2.427       .  S
Zr481       O489   2.380       .  S
Zr481       O490   2.379       .  S
Zr482       O501   2.431       .  S
Zr482       O494   2.435       .  S
Zr482       O495   2.494       .  S
Zr482       O488   2.402       .  S
Zr482       O489   2.382       .  S
Zr483       O485   2.433       .  S
Zr483       O507   2.439       .  S
Zr483       O509   2.468       .  S
Zr483       O487   2.404       .  S
Zr483       O490   2.384       .  S
Zr484       O510   2.436       .  S
Zr484       O511   2.436       .  S
Zr484       O486   2.438       .  S
Zr484       O487   2.421       .  S
Zr484       O488   2.380       .  S
O485        H522   0.990       .  S
O486        H517   0.990       .  S
O486        H531   0.990       .  S
O488        H514   0.966       .  S
O489       Zr499   2.349       .  S
O490       Zr499   2.368       .  S
O490        H515   0.964       .  S
C491        C617   1.501       .  S
C492        C603   1.474       .  S
O494        H530   0.990       .  S
O495        C497   1.299       .  A
O496        C497   1.276       .  A
O498       Zr499   2.434       .  S
O498        H527   0.990       .  S
Zr499       O502   2.434       .  S
Zr499       O503   2.443       .  S
Zr499       O504   2.467       .  S
O500        C505   1.282       .  A
O501        H518   0.990       .  S
O501        H533   0.989       .  S
O502        H519   0.989       .  S
O503        H523   0.990       .  S
O503        H532   0.989       .  S
O504        C505   1.292       .  A
O506        H525   0.990       .  S
O506        H529   0.990       .  S
O507        H521   0.990       .  S
O507        H528   0.990       .  S
O508        C512   1.283       .  A
O509        C512   1.290       .  A
O510        H520   0.990       .  S
O511        H524   0.990       .  S
C512        C609   1.477       .  S
Zr535       O536   2.439       .  S
Zr535       O537   2.408       .  S
Zr535       O538   2.531       .  S
Zr535       O541   2.489       .  S
Zr535       O543   2.394       .  S
Zr535       O544   2.398       .  S
Zr535       O545   2.398       .  S
Zr535       O546   2.411       .  S
O536        H592   0.990       .  S
O536        H600   0.990       .  S
O537        C557   1.280       .  A
O538        C559   1.305       .  A
O539       Zr549   2.501       .  S
O539        C558   1.299       .  A
O540       Zr548   2.387       .  S
O540        C559   1.276       .  A
O541        C558   1.297       .  A
O542       Zr550   2.435       .  S
O542        C557   1.286       .  A
O543       Zr548   2.398       .  S
O543       Zr550   2.381       .  S
O544       Zr549   2.378       .  S
O544       Zr550   2.362       .  S
O544        H579   0.964       .  S
O545       Zr548   2.403       .  S
O545       Zr565   2.385       .  S
O545        H582   0.965       .  S
O546       Zr549   2.415       .  S
O546       Zr565   2.394       .  S
Zr547       O572   2.442       .  S
Zr547       O566   2.445       .  S
Zr547       O574   2.367       .  S
Zr547       O562   2.436       .  S
Zr547       O553   2.413       .  S
Zr547       O554   2.393       .  S
Zr547       O555   2.361       .  S
Zr547       O556   2.389       .  S
Zr548       O567   2.439       .  S
Zr548       O560   2.436       .  S
Zr548       O561   2.441       .  S
Zr548       O554   2.381       .  S
Zr548       O555   2.383       .  S
Zr549       O551   2.436       .  S
Zr549       O573   2.436       .  S
Zr549       O575   2.510       .  S
Zr549       O553   2.400       .  S
Zr549       O556   2.390       .  S
Zr550       O576   2.439       .  S
Zr550       O577   2.438       .  S
Zr550       O552   2.431       .  S
Zr550       O553   2.395       .  S
Zr550       O554   2.401       .  S
O551        H588   0.990       .  S
O552        H583   0.990       .  S
O552        H597   0.989       .  S
O554        H580   0.966       .  S
O555       Zr565   2.383       .  S
O556       Zr565   2.374       .  S
O556        H581   0.966       .  S
C557        C625   1.482       .  S
C559        C820   1.509       .  S
O560        H596   0.990       .  S
O561        C563   1.283       .  A
O562        C563   1.282       .  A
C563        C621   1.470       .  S
O564       Zr565   2.437       .  S
O564        H593   0.989       .  S
Zr565       O568   2.436       .  S
Zr565       O569   2.438       .  S
Zr565       O570   2.397       .  S
O566        C571   1.285       .  A
O567        H584   0.990       .  S
O567        H599   0.990       .  S
O568        H585   0.990       .  S
O569        H589   0.990       .  S
O569        H598   0.990       .  S
O570        C571   1.278       .  A
C571        C637   1.474       .  S
O572        H591   0.990       .  S
O572        H595   0.991       .  S
O573        H587   0.989       .  S
O573        H594   0.990       .  S
O574        C578   1.272       .  A
O575        C578   1.299       .  A
O576        H586   0.990       .  S
O577        H590   0.990       .  S
C578        C892   1.478       .  S
C601        C781   1.505       .  S
C601        N602   1.377       .  A
C601        N606   1.360       .  A
N602        C603   1.371       .  A
C603        N604   1.345       .  A
N604        C605   1.342       .  A
C605        C628   1.471       .  S
C605        N606   1.349       .  A
C607        C793   1.505       .  S
C607        N608   1.379       .  A
C607        N612   1.354       .  A
N608        C609   1.377       .  A
C609        N610   1.349       .  A
N610        C611   1.348       .  A
C611        C652   1.479       .  S
C611        N612   1.348       .  A
C613        C853   1.514       .  S
C613        N614   1.359       .  A
C613        N618   1.385       .  A
N614        C615   1.353       .  A
C615        C673   1.491       .  S
C615        N616   1.351       .  A
N616        C617   1.355       .  A
C617        N618   1.381       .  A
C619        N620   1.354       .  A
C619        N624   1.355       .  A
N620        C621   1.355       .  A
C621        N622   1.367       .  A
N622        C623   1.368       .  A
C623        N624   1.357       .  A
C625        C626   1.408       .  A
C625        C630   1.419       .  A
C626        C627   1.395       .  A
C626        H635   1.083       .  S
C627        C628   1.409       .  A
C627        S631   1.803       .  S
C628        C629   1.399       .  A
C629        C630   1.398       .  A
C629        H636   1.082       .  S
C630        S632   1.808       .  S
S631        H634   1.408       .  S
S632        H633   1.407       .  S
C637        C638   1.403       .  A
C637        C642   1.411       .  A
C638       C2463   1.402       .  A
C638        H647   1.084       .  S
C639        C640   1.416       .  A
C639       C2462   1.406       .  A
C639        S643   1.802       .  S
C640       C2465   1.405       .  A
C641        C642   1.392       .  A
C641       C2464   1.406       .  A
C641        H648   1.083       .  S
C642        S644   1.804       .  S
S643        H646   1.407       .  S
S644        H645   1.408       .  S
C649        C650   1.402       .  A
C649       C1566   1.399   1_545  A
C650       C1563   1.403   1_545  A
C650        H659   1.083       .  S
C651        C652   1.415       .  A
C651       C1562   1.397       .  A
C651        S655   1.808       .  S
C652        C653   1.407       .  A
C653        C654   1.393       .  A
C653        H660   1.082       .  S
C654       C1561   1.405       .  A
C654        S656   1.804       .  S
S655        H658   1.407       .  S
S656       H1569   1.407       .  S
H657       S1568   1.407   1_565  S
C661        C662   1.403       .  A
C661       C2490   1.414       .  A
C662       C2487   1.387       .  A
C662        H671   1.083       .  S
C663        C664   1.415       .  A
C663       C2486   1.391   1_455  A
C663        S667   1.807       .  S
C664        C665   1.401       .  A
C665        C666   1.393   1_455  A
C665        H672   1.083       .  S
C666       C2485   1.409       .  A
C666        S668   1.803       .  S
S667        H670   1.406   1_455  S
S668       H2493   1.407       .  S
H669       S2492   1.406       .  S
C673        C674   1.408       .  A
C673        C678   1.415       .  A
C674       C1587   1.400       .  A
C674        H683   1.082       .  S
C675        C676   1.407       .  A
C675       C1586   1.401   1_545  A
C675        S679   1.806       .  S
C676        C677   1.406       .  A
C677       C1590   1.401       .  A
C677        H684   1.084       .  S
C678       C1589   1.401       .  A
C678        S680   1.804       .  S
S679        H682   1.407   1_545  S
S680        H681   1.408       .  S
C685        C686   1.401       .  A
C685        C690   1.410       .  A
C686        C687   1.401       .  A
C686        H695   1.082       .  S
C687        C688   1.420       .  A
C687        S691   1.804       .  S
C688        C689   1.404       .  A
C689        C690   1.396       .  A
C689        H696   1.083       .  S
C690        S692   1.797       .  S
S691        H694   1.407       .  S
S692        H693   1.409       .  S
C697        C698   1.412       .  A
C697        C702   1.409       .  A
C698        C699   1.413       .  A
C698        H707   1.084       .  S
C699        C700   1.414   1_556  A
C699        S703   1.798       .  S
C700        C701   1.415       .  A
C701        C702   1.409   1_554  A
C701        H708   1.084       .  S
C702        S704   1.798       .  S
S703        H706   1.407   1_556  S
S704        H705   1.405       .  S
C709        C710   1.419       .  A
C709        C714   1.410       .  A
C710        C711   1.402       .  A
C710        H719   1.082       .  S
C711        C712   1.407       .  A
C711        S715   1.802       .  S
C712        C713   1.411       .  A
C713        C714   1.402       .  A
C713        H720   1.080       .  S
C714        S716   1.800       .  S
S715        H718   1.407       .  S
S716        H717   1.408       .  S
C721        C722   1.409       .  A
C721        C726   1.411       .  A
C722        C723   1.419       .  A
C722        H731   1.083       .  S
C723        C724   1.414   1_556  A
C723        S727   1.800   1_556  S
C724        C725   1.408       .  A
C725        C726   1.404   1_554  A
C725        H732   1.081       .  S
C726        S728   1.806       .  S
S727        H730   1.407   1_554  S
S728        H729   1.406       .  S
C733       C2558   1.404       .  A
C733       C2562   1.415       .  A
C734        C735   1.402       .  A
C734       C2557   1.403       .  A
C734        H743   1.081       .  S
C735        C736   1.418       .  A
C735        S739   1.809       .  S
C736        C737   1.405       .  A
C737        C738   1.393       .  A
C737        H744   1.083       .  S
C738       C2557   1.411       .  A
C738       S2564   1.802       .  S
S739        H742   1.407       .  S
S740       C2562   1.804       .  S
S740        H741   1.406       .  S
C745        C746   1.414       .  A
C745        C750   1.414       .  A
C746        C747   1.405       .  A
C746        H755   1.084       .  S
C747        C748   1.410       .  A
C747        S751   1.802       .  S
C748        C749   1.413       .  A
C749        C750   1.410       .  A
C749        H756   1.084       .  S
C750        S752   1.801       .  S
S751        H754   1.404       .  S
S752        H753   1.406       .  S
C757        C758   1.406       .  A
C757        C762   1.412       .  A
C758        C759   1.396       .  A
C758        H767   1.084       .  S
C759        C760   1.414       .  A
C759        S763   1.805       .  S
C760        C761   1.406       .  A
C761        C762   1.394       .  A
C761        H768   1.084       .  S
C762        S764   1.803       .  S
S763        H766   1.405       .  S
S764        H765   1.407       .  S
C769        C770   1.408       .  A
C769        C774   1.416       .  A
C770        C771   1.408       .  A
C770        H779   1.083       .  S
C771        C772   1.415       .  A
C771        S775   1.805       .  S
C772        C773   1.410       .  A
C773        C774   1.411       .  A
C773        H780   1.084       .  S
C774        S776   1.802       .  S
S775        H778   1.407       .  S
S776        H777   1.408       .  S
C781        C782   1.417       .  A
C781        C786   1.416       .  A
C782        C783   1.399       .  A
C782        H791   1.083       .  S
C783        C784   1.405       .  A
C783        S787   1.799       .  S
C784        C785   1.413       .  A
C785        C786   1.408       .  A
C785        H792   1.084       .  S
C786        S788   1.800       .  S
S787        H790   1.407       .  S
S788        H789   1.408       .  S
C793        C794   1.417       .  A
C793        C798   1.410       .  A
C794        C795   1.408   1_556  A
C794        H803   1.084       .  S
C795        C796   1.409       .  A
C795        S799   1.797       .  S
C796        C797   1.418       .  A
C797        C798   1.409   1_554  A
C797        H804   1.084       .  S
C798        S800   1.798       .  S
S799        H802   1.407       .  S
S800        H801   1.408       .  S
C805        C810   1.405       .  A
C805       C1718   1.402       .  A
C806        C807   1.410   1_565  A
C806       C1717   1.406       .  A
C806        H815   1.083       .  S
C807        C808   1.418       .  A
C807        S811   1.807       .  S
C808        C809   1.410       .  A
C809       C1722   1.393   1_545  A
C809        H816   1.083       .  S
C810       C1721   1.394       .  A
C810        S812   1.803       .  S
S811        H814   1.407   1_545  S
S812        H813   1.408       .  S
C817        C818   1.402       .  A
C817        C822   1.430       .  A
C818        C819   1.411       .  A
C818        H827   1.083       .  S
C819        C820   1.426       .  A
C819        S823   1.804       .  S
C820        C821   1.401       .  A
C821        C822   1.416       .  A
C821        H828   1.082       .  S
C822        S824   1.809       .  S
S823        H826   1.408       .  S
S824        H825   1.406       .  S
C829        C830   1.415       .  A
C829        C834   1.407       .  A
C830        C831   1.412       .  A
C830        H839   1.083   1_556  S
C831        C832   1.413       .  A
C831        S835   1.804       .  S
C832        C833   1.417       .  A
C833        C834   1.403       .  A
C833        H840   1.084       .  S
C834        S836   1.799       .  S
S835        H838   1.407       .  S
S836        H837   1.408       .  S
C841        C842   1.412       .  A
C841        C846   1.423       .  A
C842        C843   1.413   1_554  A
C842        H851   1.083       .  S
C843        C844   1.422       .  A
C843        S847   1.799       .  S
C844        C845   1.409       .  A
C845        C846   1.408   1_556  A
C845        H852   1.080       .  S
C846        S848   1.811       .  S
S847        H850   1.408       .  S
S848        H849   1.406   1_455  S
C853        C854   1.418       .  A
C853        C858   1.412       .  A
C854        C855   1.414       .  A
C854        H863   1.084       .  S
C855        C856   1.414       .  A
C855        S859   1.801       .  S
C856        C857   1.414       .  A
C857        C858   1.413       .  A
C857        H864   1.082       .  S
C858        S860   1.798       .  S
S859        H862   1.400       .  S
S860        H861   1.406       .  S
C865       C1871   1.460       .  S
C865        C866   1.400       .  A
C865        C870   1.403       .  A
C866        C867   1.400       .  A
C866        H875   1.083       .  S
C867        C868   1.420       .  A
C867        S871   1.811       .  S
C868        C869   1.407       .  A
C869        C870   1.390       .  A
C869        H876   1.082       .  S
C870       S2696   1.800       .  S
S871        H874   1.407       .  S
S872       C2694   1.801       .  S
S872        H873   1.402       .  S
C877        C954   1.457       .  S
C877        C878   1.398   1_565  A
C877        C882   1.406   1_565  A
C878        C879   1.396       .  A
C878        H887   1.085       .  S
C879        C880   1.421       .  A
C879        S883   1.803       .  S
C880        C881   1.409       .  A
C881        C882   1.393       .  A
C881        H888   1.083       .  S
C882       S1796   1.806   1_545  S
S883        H886   1.407       .  S
S884       C1794   1.805       .  S
S884        H885   1.407       .  S
C889        C890   1.404       .  A
C889        C894   1.411       .  A
C890        C891   1.409       .  A
C890        H899   1.084       .  S
C891        C892   1.418       .  A
C891        S895   1.806       .  S
C892        C893   1.405       .  A
C893        C894   1.400       .  A
C893        H900   1.084       .  S
C894        S896   1.804       .  S
S895        H898   1.400       .  S
S896        H897   1.408   1_556  S
C901        C902   1.402       .  A
C901        C906   1.410       .  A
C902        C903   1.395       .  A
C902        H911   1.084       .  S
C903        C904   1.416       .  A
C903        S907   1.802       .  S
C904        C905   1.404       .  A
C905        C906   1.393       .  A
C905        H912   1.084       .  S
C906        S908   1.800       .  S
S907        H910   1.408       .  S
S908        H909   1.409       .  S
C913        C974   1.531       .  S
C913       N2742   1.377   1_455  A
N914        C915   1.373       .  A
C915       C1177   1.526       .  S
C915       N2740   1.372   1_455  A
N916       C2739   1.370       .  A
C917       C1099   1.514       .  S
C917        N918   1.376       .  A
N918       C2737   1.371       .  A
C919        C955   1.473       .  S
C919        N920   1.354       .  A
C919        N924   1.362       .  A
N920        C921   1.354       .  A
C921       C1196   1.478       .  S
C921        N922   1.365       .  A
N922        C923   1.370       .  A
C923       C1118   1.481       .  S
C923        N924   1.366       .  A
C925       C1801   1.486   1_554  S
C925        N926   1.379       .  A
C925        N930   1.352       .  A
N926        C927   1.376       .  A
C927       C1045   1.489       .  S
C927        N928   1.354       .  A
N928        C929   1.354       .  A
C929       C1816   1.482       .  S
C929        N930   1.349       .  A
Zr931       O932   2.440       .  S
Zr931       O933   2.451       .  S
Zr931       O934   2.472       .  S
Zr931       O937   2.428       .  S
Zr931       O939   2.387       .  S
Zr931       O940   2.398       .  S
Zr931       O941   2.407       .  S
Zr931       O942   2.415       .  S
O932        H988   0.990       .  S
O932        H996   0.990       .  S
O933        C953   1.286       .  A
O934        C955   1.288       .  A
O935       Zr945   2.410       .  S
O935        C954   1.281       .  A
O936       Zr944   2.415       .  S
O936        C955   1.280       .  A
O937        C954   1.282       .  A
O938       Zr946   2.448       .  S
O938        C953   1.286       .  A
O939       Zr944   2.387       .  S
O939       Zr946   2.378       .  S
O940       Zr945   2.397       .  S
O940       Zr946   2.366       .  S
O940        H975   0.965       .  S
O941       Zr944   2.405       .  S
O941       Zr961   2.399       .  S
O941        H978   0.964       .  S
O942       Zr945   2.395       .  S
O942       Zr961   2.382       .  S
Zr943       O968   2.445       .  S
Zr943       O962   2.558       .  S
Zr943       O970   2.562       .  S
Zr943       O958   2.411       .  S
Zr943       O949   2.418       .  S
Zr943       O950   2.454       .  S
Zr943       O951   2.360       .  S
Zr943       O952   2.388       .  S
Zr944       O963   2.435       .  S
Zr944       O956   2.432       .  S
Zr944       O957   2.425       .  S
Zr944       O950   2.408       .  S
Zr944       O951   2.359       .  S
Zr945       O947   2.419   1_565  S
Zr945       O969   2.441       .  S
Zr945       O971   2.435       .  S
Zr945       O949   2.380       .  S
Zr945       O952   2.412       .  S
Zr946       O972   2.433       .  S
Zr946       O973   2.427   1_455  S
Zr946       O948   2.437       .  S
Zr946       O949   2.413       .  S
Zr946       O950   2.390       .  S
O948        H979   0.990       .  S
O948        H993   0.990       .  S
O950        H976   0.965       .  S
O951       Zr961   2.349       .  S
O952       Zr961   2.397       .  S
O952        H977   0.966       .  S
C953       C1753   1.504       .  S
O956        H992   0.991       .  S
O957        C959   1.283       .  A
O958        C959   1.284       .  A
C959       C3601   1.457       .  S
O960       Zr961   2.437       .  S
O960        H989   0.990   1_565  S
Zr961       O964   2.440       .  S
Zr961       O965   2.427       .  S
Zr961       O966   2.417       .  S
O962        C967   1.308       .  A
O963        H980   0.990       .  S
O963        H995   0.990       .  S
O964        H981   0.990       .  S
O965        H985   0.990   1_565  S
O965        H994   0.989       .  S
O966        C967   1.282       .  A
C967       C1768   1.515       .  S
O968        H987   0.990       .  S
O968       H2815   0.991       .  S
O969        H983   0.990       .  S
O969        H990   0.990       .  S
O970        C974   1.306       .  A
O971        C974   1.282       .  A
O972        H982   0.990       .  S
O973       H2810   0.990       .  S
H986       O2797   0.990       .  S
H991       O2792   0.991       .  S
C997       C1741   1.493   1_554  S
C997        N998   1.374       .  A
C997       N1002   1.355       .  A
N998        C999   1.372       .  A
C999       C1037   1.471       .  S
C999       N1000   1.354       .  A
N1000      C1001   1.349       .  A
C1001      C1792   1.480       .  S
C1001      N1002   1.349       .  A
C1003      C1729   1.509       .  S
C1003      N1004   1.378       .  A
C1003      N1008   1.352       .  A
N1004      C1005   1.380       .  A
C1005      C1032   1.491       .  S
C1005      N1006   1.356       .  A
N1006      C1007   1.351       .  A
C1007      C1780   1.487       .  S
C1007      N1008   1.352       .  A
Zr1009     O1010   2.440       .  S
Zr1009     O1011   2.466       .  S
Zr1009     O1012   2.462       .  S
Zr1009     O1015   2.433       .  S
Zr1009     O1017   2.371       .  S
Zr1009     O1018   2.405       .  S
Zr1009     O1019   2.432       .  S
Zr1009     O1020   2.416       .  S
O1010      H1066   0.990       .  S
O1010      H1074   0.990       .  S
O1011      C1031   1.288       .  A
O1012      C1033   1.284       .  A
O1013     Zr1023   2.492       .  S
O1013      C1032   1.299       .  A
O1014     Zr1022   2.477       .  S
O1014      C1033   1.295       .  A
O1015      C1032   1.284       .  A
O1016     Zr1024   2.423       .  S
O1016      C1031   1.284       .  A
O1017     Zr1022   2.367       .  S
O1017     Zr1024   2.348       .  S
O1018     Zr1023   2.387       .  S
O1018     Zr1024   2.388       .  S
O1018      H1053   0.965       .  S
O1019     Zr1022   2.383       .  S
O1019     Zr1039   2.438       .  S
O1019      H1056   0.965       .  S
O1020     Zr1023   2.381       .  S
O1020     Zr1039   2.398       .  S
Zr1021     O1046   2.441       .  S
Zr1021     O1040   2.455       .  S
Zr1021     O1048   2.413       .  S
Zr1021     O1036   2.449       .  S
Zr1021     O1027   2.413       .  S
Zr1021     O1028   2.410       .  S
Zr1021     O1029   2.384       .  S
Zr1021     O1030   2.394       .  S
Zr1022     O1041   2.436       .  S
Zr1022     O1034   2.413       .  S
Zr1022     O1035   2.438       .  S
Zr1022     O1028   2.406       .  S
Zr1022     O1029   2.396       .  S
Zr1023     O1025   2.436       .  S
Zr1023     O1047   2.435       .  S
Zr1023     O1049   2.496       .  S
Zr1023     O1027   2.394       .  S
Zr1023     O1030   2.378       .  S
Zr1024     O1050   2.435       .  S
Zr1024     O1051   2.435       .  S
Zr1024     O1026   2.440       .  S
Zr1024     O1027   2.382       .  S
Zr1024     O1028   2.407       .  S
O1025      H1062   0.990       .  S
O1026      H1057   0.990       .  S
O1026      H1071   0.990       .  S
O1028      H1054   0.966       .  S
O1029     Zr1039   2.370       .  S
O1030     Zr1039   2.380       .  S
O1030      H1055   0.964       .  S
C1031      C1145   1.483       .  S
C1033      C1149   1.493       .  S
O1034      H1070   0.990       .  S
O1035      C1037   1.284       .  A
O1036      C1037   1.284       .  A
O1038     Zr1039   2.431       .  S
O1038      H1067   0.990       .  S
Zr1039     O1042   2.437       .  S
Zr1039     O1043   2.437       .  S
Zr1039     O1044   2.480       .  S
O1040      C1045   1.284       .  A
O1041      H1058   0.990       .  S
O1041      H1073   0.987       .  S
O1042      H1059   0.990       .  S
O1043      H1063   0.990       .  S
O1043      H1072   0.990       .  S
O1044      C1045   1.295       .  A
O1046      H1065   0.990       .  S
O1046      H1069   0.990       .  S
O1047      H1061   0.990       .  S
O1047      H1068   0.990       .  S
O1048      C1052   1.279       .  A
O1049      C1052   1.300       .  A
O1050      H1060   0.990       .  S
O1051      H1064   0.990       .  S
C1052      C1223   1.486       .  S
Zr1075     O1076   2.435       .  S
Zr1075     O1077   2.429       .  S
Zr1075     O1078   2.484       .  S
Zr1075     O1081   2.513       .  S
Zr1075     O1083   2.390       .  S
Zr1075     O1084   2.391       .  S
Zr1075     O1085   2.419       .  S
Zr1075     O1086   2.405       .  S
O1076      H1132   0.990       .  S
O1076      H1140   0.990       .  S
O1077      C1097   1.285       .  A
O1078      C1099   1.295       .  A
O1079     Zr1089   2.374       .  S
O1079      C1098   1.275       .  A
O1080     Zr1088   2.493       .  S
O1080      C1099   1.296       .  A
O1081      C1098   1.301       .  A
O1082     Zr1090   2.417       .  S
O1082      C1097   1.281       .  A
O1083     Zr1088   2.387       .  S
O1083     Zr1090   2.366       .  S
O1084     Zr1089   2.399       .  S
O1084     Zr1090   2.375       .  S
O1084      H1119   0.967       .  S
O1085     Zr1088   2.413       .  S
O1085     Zr1105   2.402       .  S
O1085      H1122   0.966       .  S
O1086     Zr1089   2.399       .  S
O1086     Zr1105   2.392       .  S
Zr1087     O1112   2.440       .  S
Zr1087     O1106   2.433       .  S
Zr1087     O1114   2.470       .  S
Zr1087     O1102   2.388       .  S
Zr1087     O1093   2.391       .  S
Zr1087     O1094   2.419       .  S
Zr1087     O1095   2.397       .  S
Zr1087     O1096   2.367       .  S
Zr1088     O1107   2.436       .  S
Zr1088     O1100   2.436       .  S
Zr1088     O1101   2.489       .  S
Zr1088     O1094   2.402       .  S
Zr1088     O1095   2.396       .  S
Zr1089     O1091   2.436       .  S
Zr1089     O1113   2.435       .  S
Zr1089     O1115   2.433       .  S
Zr1089     O1093   2.373       .  S
Zr1089     O1096   2.379       .  S
Zr1090     O1116   2.439       .  S
Zr1090     O1117   2.431       .  S
Zr1090     O1092   2.437       .  S
Zr1090     O1093   2.405       .  S
Zr1090     O1094   2.373       .  S
O1091      H1128   0.990       .  S
O1092      H1123   0.990       .  S
O1092      H1137   0.990       .  S
O1094      H1120   0.965       .  S
O1095     Zr1105   2.371       .  S
O1096     Zr1105   2.379       .  S
O1096      H1121   0.966       .  S
C1097      C1813   1.482       .  S
C1098      C1708   1.500       .  S
O1100      H1136   0.990       .  S
O1101      C1103   1.296       .  A
O1102      C1103   1.277       .  A
C1103      C1696   1.473       .  S
O1104     Zr1105   2.436       .  S
Zr1105     O1108   2.437   1_565  S
Zr1105     O1109   2.441       .  S
Zr1105     O1110   2.426       .  S
O1106      C1111   1.284       .  A
O1107      H1124   0.990   1_565  S
O1107      H1139   0.990       .  S
O1109      H1138   0.989       .  S
O1110      C1111   1.283       .  A
C1111      C1717   1.481       .  S
O1112      H1131   0.990       .  S
O1112      H1135   0.990       .  S
O1113      H1127   0.990       .  S
O1113      H1134   0.990       .  S
O1114      C1118   1.289       .  A
O1115      C1118   1.282       .  A
O1116      H1126   0.990       .  S
O1117      H1130   0.990       .  S
C1141      C1681   1.493       .  S
C1141      N1142   1.362       .  A
C1141      N1146   1.374       .  A
N1142      C1143   1.351       .  A
C1143      C1720   1.494       .  S
C1143      N1144   1.350       .  A
N1144      C1145   1.355       .  A
C1145      N1146   1.369       .  A
C1147      C1657   1.493       .  S
C1147      N1148   1.381       .  A
C1147      N1152   1.354       .  A
N1148      C1149   1.376       .  A
C1149      N1150   1.351       .  A
N1150      C1151   1.351       .  A
C1151      C1669   1.478       .  S
C1151      N1152   1.348       .  A
Zr1153     O1154   2.439       .  S
Zr1153     O1155   2.411       .  S
Zr1153     O1156   2.460       .  S
Zr1153     O1159   2.509       .  S
Zr1153     O1161   2.390       .  S
Zr1153     O1162   2.390       .  S
Zr1153     O1163   2.410       .  S
Zr1153     O1164   2.387       .  S
O1154      H1210   0.990       .  S
O1154      H1218   0.990       .  S
O1155      C1175   1.284       .  A
O1156      C1177   1.289       .  A
O1157     Zr1167   2.381       .  S
O1157      C1176   1.275       .  A
O1158     Zr1166   2.541       .  S
O1158      C1177   1.307       .  A
O1159      C1176   1.300       .  A
O1160     Zr1168   2.421       .  S
O1160      C1175   1.279       .  A
O1161     Zr1166   2.378       .  S
O1161     Zr1168   2.359       .  S
O1162     Zr1167   2.400       .  S
O1162     Zr1168   2.376       .  S
O1162      H1197   0.964       .  S
O1163     Zr1166   2.426       .  S
O1163     Zr1183   2.395       .  S
O1163      H1200   0.966       .  S
O1164     Zr1167   2.410       .  S
O1164     Zr1183   2.375       .  S
Zr1165     O1190   2.441       .  S
Zr1165     O1184   2.441       .  S
Zr1165     O1192   2.433       .  S
Zr1165     O1180   2.349       .  S
Zr1165     O1171   2.389       .  S
Zr1165     O1172   2.418       .  S
Zr1165     O1173   2.385       .  S
Zr1165     O1174   2.356       .  S
Zr1166     O1185   2.434       .  S
Zr1166     O1178   2.434       .  S
Zr1166     O1179   2.541       .  S
Zr1166     O1172   2.407       .  S
Zr1166     O1173   2.400       .  S
Zr1167     O1169   2.434       .  S
Zr1167     O1191   2.439       .  S
Zr1167     O1193   2.458       .  S
Zr1167     O1171   2.369       .  S
Zr1167     O1174   2.385       .  S
Zr1168     O1194   2.431       .  S
Zr1168     O1195   2.436       .  S
Zr1168     O1170   2.441       .  S
Zr1168     O1171   2.406       .  S
Zr1168     O1172   2.388       .  S
O1169      H1206   0.990       .  S
O1170      H1201   0.990       .  S
O1170      H1215   0.989       .  S
O1172      H1198   0.965       .  S
O1173     Zr1183   2.377       .  S
O1174     Zr1183   2.386       .  S
O1174      H1199   0.965       .  S
C1175      C1672   1.477       .  S
C1176      C1621   1.507       .  S
O1178      H1214   0.990       .  S
O1179      C1181   1.306       .  A
O1180      C1181   1.270       .  A
C1181      C1636   1.487       .  S
O1182     Zr1183   2.437       .  S
O1182      H3035   0.990       .  S
Zr1183     O3010   2.435   1_455  S
Zr1183     O1187   2.440       .  S
Zr1183     O1188   2.398       .  S
O1184      C1189   1.285       .  A
O1185      H1202   0.990       .  S
O1185      H1217   0.990       .  S
O1186     Zr3007   2.436       .  S
O1186      H1203   0.989       .  S
O1187      H3031   0.990       .  S
O1187      H1216   0.990       .  S
O1188      C1189   1.278       .  A
C1189      C1645   1.476       .  S
O1190      H1209   0.991       .  S
O1190      H1213   0.990       .  S
O1191      H1205   0.990       .  S
O1191      H1212   0.990       .  S
O1192      C1196   1.282       .  A
O1193      C1196   1.286       .  A
O1194      H1204   0.990       .  S
O1195      H1208   0.990       .  S
H1207      O3011   0.990       .  S
H1211      O3006   0.990       .  S
C1219      C1612   1.508       .  S
C1219      N1220   1.357       .  A
C1219      N1224   1.374       .  A
N1220      C1221   1.356       .  A
C1221      C1648   1.483       .  S
C1221      N1222   1.355       .  A
N1222      C1223   1.352       .  A
C1223      N1224   1.375       .  A
C1225      C1337   1.524       .  S
C1225      N1226   1.371       .  A
N1226      C3051   1.369       .  A
C1227      C1254   1.512       .  S
C1227      N3050   1.370   1_455  A
C1227      N3052   1.368   1_455  A
N1228      C3051   1.371       .  A
C1229      C1470   1.507       .  S
C1229      N1230   1.377       .  A
Zr1231     O1232   2.437       .  S
Zr1231     O1233   2.438       .  S
Zr1231     O1234   2.502       .  S
Zr1231     O1237   2.452       .  S
Zr1231     O1239   2.389       .  S
Zr1231     O1240   2.390       .  S
Zr1231     O1241   2.411       .  S
Zr1231     O1242   2.419       .  S
O1232      H1288   0.990       .  S
O1232      H1296   0.990       .  S
O1233      C1253   1.287       .  A
O1234      C1255   1.298       .  A
O1235     Zr1245   2.519       .  S
O1235      C1254   1.301       .  A
O1236     Zr1244   2.396       .  S
O1236      C1255   1.279       .  A
O1237      C1254   1.288       .  A
O1238     Zr1246   2.408       .  S
O1238      C1253   1.279       .  A
O1239     Zr1244   2.398       .  S
O1239     Zr1246   2.378       .  S
O1240     Zr1245   2.376       .  S
O1240     Zr1246   2.371       .  S
O1240      H1275   0.965       .  S
O1241     Zr1244   2.405       .  S
O1241     Zr1261   2.401       .  S
O1241      H1278   0.965       .  S
O1242     Zr1245   2.405       .  S
O1242     Zr1261   2.411       .  S
Zr1243     O1268   2.439       .  S
Zr1243     O1262   2.428       .  S
Zr1243     O1270   2.395       .  S
Zr1243     O1258   2.468       .  S
Zr1243     O1249   2.408       .  S
Zr1243     O1250   2.394       .  S
Zr1243     O1251   2.367       .  S
Zr1243     O1252   2.398       .  S
Zr1244     O1263   2.438       .  S
Zr1244     O1256   2.436       .  S
Zr1244     O1257   2.434       .  S
Zr1244     O1250   2.388       .  S
Zr1244     O1251   2.391       .  S
Zr1245     O1247   2.434       .  S
Zr1245     O1269   2.437       .  S
Zr1245     O1271   2.494       .  S
Zr1245     O1249   2.404       .  S
Zr1245     O1252   2.395       .  S
Zr1246     O1272   2.436       .  S
Zr1246     O1273   2.433       .  S
Zr1246     O1248   2.433       .  S
Zr1246     O1249   2.379       .  S
Zr1246     O1250   2.396       .  S
O1247      H1284   0.990       .  S
O1248      H1279   0.990       .  S
O1248      H1293   0.989       .  S
O1250      H1276   0.966       .  S
O1251     Zr1261   2.377       .  S
O1252     Zr1261   2.373       .  S
O1252      H1277   0.966       .  S
C1253      C1600   1.481       .  S
C1255      C1744   1.509       .  S
O1256      H1292   0.990       .  S
O1257      C1259   1.281       .  A
O1258      C1259   1.290       .  A
C1259      C1535   1.480       .  S
O1260     Zr1261   2.436       .  S
O1260      H1289   0.990       .  S
Zr1261     O1264   2.435       .  S
Zr1261     O1265   2.436       .  S
Zr1261     O1266   2.438       .  S
O1262      C1267   1.282       .  A
O1263      H1280   0.990       .  S
O1263      H1295   0.990       .  S
O1264      H1281   0.990       .  S
O1265      H1294   0.990       .  S
O1266      C1267   1.285       .  A
C1267      C1588   1.482       .  S
O1268      H1287   0.990       .  S
O1268      H1291   0.990       .  S
O1269      H1283   0.990       .  S
O1269      H1290   0.990       .  S
O1270      C1274   1.278       .  A
O1271      C1274   1.297       .  A
O1272      H1282   0.990       .  S
O1273      H1286   0.990       .  S
C1274      C1660   1.482       .  S
C1297      C1633   1.492       .  S
C1297      N1298   1.380       .  A
C1297      N1302   1.351       .  A
N1298      C1299   1.380       .  A
C1299      C1417   1.493       .  S
C1299      N1300   1.357       .  A
N1300      C1301   1.354       .  A
C1301      C1597   1.483       .  S
C1301      N1302   1.347       .  A
C1303      C1624   1.496       .  S
C1303      N1304   1.358       .  A
C1303      N1308   1.374       .  A
N1304      C1305   1.352       .  A
C1305      C1576   1.471       .  S
C1305      N1306   1.346       .  A
N1306      C1307   1.340       .  A
C1307      C1405   1.472       .  S
C1307      N1308   1.370       .  A
Zr1309     O1310   2.434       .  S
Zr1309     O1311   2.421       .  S
Zr1309     O1312   2.419       .  S
Zr1309     O1315   2.427       .  S
Zr1309     O1317   2.385       .  S
Zr1309     O1318   2.384       .  S
Zr1309     O1319   2.405       .  S
Zr1309     O1320   2.390       .  S
O1310      H1366   0.990       .  S
O1310      H1374   0.989       .  S
O1311      C1331   1.281       .  A
O1312      C1333   1.280       .  A
O1313     Zr1323   2.425       .  S
O1313      C1332   1.282       .  A
O1314     Zr1322   2.413       .  S
O1314      C1333   1.284       .  A
O1315      C1332   1.283       .  A
O1316     Zr1324   2.471       .  S
O1316      C1331   1.290       .  A
O1317     Zr1322   2.392       .  S
O1317     Zr1324   2.362       .  S
O1318     Zr1323   2.378       .  S
O1318     Zr1324   2.365       .  S
O1318      H1353   0.967       .  S
O1319     Zr1322   2.396       .  S
O1319     Zr1339   2.383       .  S
O1319      H1356   0.968       .  S
O1320     Zr1323   2.388       .  S
O1320     Zr1339   2.393       .  S
Zr1321     O1346   2.442       .  S
Zr1321     O1340   2.525       .  S
Zr1321     O1348   2.421       .  S
Zr1321     O1336   2.560       .  S
Zr1321     O1327   2.444       .  S
Zr1321     O1328   2.417       .  S
Zr1321     O1329   2.382       .  S
Zr1321     O1330   2.403       .  S
Zr1322     O1341   2.421       .  S
Zr1322     O1334   2.435       .  S
Zr1322     O1335   2.432       .  S
Zr1322     O1328   2.384       .  S
Zr1322     O1329   2.408       .  S
Zr1323     O1325   2.439       .  S
Zr1323     O1347   2.438       .  S
Zr1323     O1349   2.416       .  S
Zr1323     O1327   2.401       .  S
Zr1323     O1330   2.380       .  S
Zr1324     O1350   2.432       .  S
Zr1324     O1351   2.438       .  S
Zr1324     O1326   2.440       .  S
Zr1324     O1327   2.401       .  S
Zr1324     O1328   2.411       .  S
O1325      H1362   0.990       .  S
O1326      H1357   0.988       .  S
O1326      H1371   0.990       .  S
O1328      H1354   0.961       .  S
O1329     Zr1339   2.392       .  S
O1330     Zr1339   2.385       .  S
O1330      H1355   0.962       .  S
C1331      C1684   1.497       .  S
C1332      C1531   1.463       .  S
C1333      C1573   1.480       .  S
O1334      H1370   0.990       .  S
O1335      C1337   1.283       .  A
O1336      C1337   1.307       .  A
O1338     Zr1339   2.431       .  S
O1338      H1367   0.990       .  S
Zr1339     O1342   2.431       .  S
Zr1339     O1343   2.442       .  S
Zr1339     O1344   2.399       .  S
O1340      C1345   1.301       .  A
O1341      H1358   0.990       .  S
O1341      H1373   0.989       .  S
O1342      H1359   0.990       .  S
O1343      H1363   0.991       .  S
O1343      H1372   0.990       .  S
O1344      C1345   1.277       .  A
C1345      C1609   1.496       .  S
O1346      H1365   0.991       .  S
O1346      H1369   0.990       .  S
O1347      H1361   0.986       .  S
O1347      H1368   0.990       .  S
O1348      C1352   1.283       .  A
O1349      C1352   1.279       .  A
O1350      H1360   0.990       .  S
O1351      H1364   0.989       .  S
C1352      C1561   1.456       .  S
C1375      C1756   1.503       .  S
C1375      N1376   1.359       .  A
C1375      N1380   1.364       .  A
N1376      C1377   1.359       .  A
C1377      C1552   1.501   1_455  S
C1377      N1378   1.364       .  A
N1378      C1379   1.360       .  A
C1379      C1409   1.487       .  S
C1379      N1380   1.367       .  A
Zr1381     O1382   2.439       .  S
Zr1381     O1383   2.486       .  S
Zr1381     O1384   2.402       .  S
Zr1381     O1387   2.433       .  S
Zr1381     O1389   2.388       .  S
Zr1381     O1390   2.389       .  S
Zr1381     O1391   2.426       .  S
Zr1381     O1392   2.433       .  S
O1382      H1438   0.990       .  S
O1382      H1446   0.990       .  S
O1383      C1403   1.291       .  A
O1384      C1405   1.276       .  A
O1385     Zr1395   2.472       .  S
O1385      C1404   1.295       .  A
O1386     Zr1394   2.485       .  S
O1386      C1405   1.300       .  A
O1387      C1404   1.281       .  A
O1388     Zr1396   2.450       .  S
O1388      C1403   1.289       .  A
O1389     Zr1394   2.388       .  S
O1389     Zr1396   2.370       .  S
O1390     Zr1395   2.403       .  S
O1390     Zr1396   2.351       .  S
O1390      H1425   0.963       .  S
O1391     Zr1394   2.398       .  S
O1391     Zr1411   2.398       .  S
O1391      H1428   0.963       .  S
O1392     Zr1395   2.374       .  S
O1392     Zr1411   2.435       .  S
Zr1393     O1418   2.439       .  S
Zr1393     O1412   2.451       .  S
Zr1393     O1420   2.450       .  S
Zr1393     O1408   2.427       .  S
Zr1393     O1399   2.413       .  S
Zr1393     O1400   2.421       .  S
Zr1393     O1401   2.377       .  S
Zr1393     O1402   2.386       .  S
Zr1394     O1413   2.427       .  S
Zr1394     O1406   2.433       .  S
Zr1394     O1407   2.488       .  S
Zr1394     O1400   2.406       .  S
Zr1394     O1401   2.378       .  S
Zr1395     O1397   2.431       .  S
Zr1395     O1419   2.435       .  S
Zr1395     O1421   2.465       .  S
Zr1395     O1399   2.402       .  S
Zr1395     O1402   2.391       .  S
Zr1396     O1422   2.439       .  S
Zr1396     O1423   2.437       .  S
Zr1396     O1398   2.437       .  S
Zr1396     O1399   2.416       .  S
Zr1396     O1400   2.379       .  S
O1397      H1434   0.989       .  S
O1398      H1429   0.990       .  S
O1398      H1443   0.990       .  S
O1400      H1426   0.965       .  S
O1401     Zr1411   2.344       .  S
O1402     Zr1411   2.367       .  S
O1402      H1427   0.966       .  S
C1403      C1529   1.503       .  S
C1404      C1515   1.476       .  S
O1406      H1442   0.990       .  S
O1407      C1409   1.298       .  A
O1408      C1409   1.285       .  A
O1410     Zr1411   2.434       .  S
O1410      H1439   0.990       .  S
Zr1411     O1414   2.437       .  S
Zr1411     O1415   2.441       .  S
Zr1411     O1416   2.488       .  S
O1412      C1417   1.283       .  A
O1413      H1430   0.989       .  S
O1413      H1445   0.990       .  S
O1414      H1431   0.989       .  S
O1415      H1435   0.990       .  S
O1415      H1444   0.989       .  S
O1416      C1417   1.296       .  A
O1418      H1437   0.990       .  S
O1418      H1441   0.990       .  S
O1419      H1433   0.990       .  S
O1419      H1440   0.988       .  S
O1420      C1424   1.286       .  A
O1421      C1424   1.292       .  A
O1422      H1432   0.990       .  S
O1423      H1436   0.990       .  S
C1424      C1521   1.478       .  S
Zr1447     O1448   2.437       .  S
Zr1447     O1449   2.394       .  S
Zr1447     O1450   2.530       .  S
Zr1447     O1453   2.484       .  S
Zr1447     O1455   2.390       .  S
Zr1447     O1456   2.398       .  S
Zr1447     O1457   2.394       .  S
Zr1447     O1458   2.414       .  S
O1448      H1504   0.990       .  S
O1448      H1512   0.990       .  S
O1449      C1469   1.276       .  A
O1450      C1471   1.305       .  A
O1451     Zr1461   2.492       .  S
O1451      C1470   1.297       .  A
O1452     Zr1460   2.378       .  S
O1452      C1471   1.275       .  A
O1453      C1470   1.296       .  A
O1454     Zr1462   2.452       .  S
O1454      C1469   1.289       .  A
O1455     Zr1460   2.400       .  S
O1455     Zr1462   2.373       .  S
O1456     Zr1461   2.379       .  S
O1456     Zr1462   2.356       .  S
O1456      H1491   0.963       .  S
O1457     Zr1460   2.407       .  S
O1457     Zr1477   2.381       .  S
O1457      H1494   0.966       .  S
O1458     Zr1461   2.417       .  S
O1458     Zr1477   2.388       .  S
Zr1459     O1484   2.442       .  S
Zr1459     O1478   2.459       .  S
Zr1459     O1486   2.396       .  S
Zr1459     O1474   2.458       .  S
Zr1459     O1465   2.416       .  S
Zr1459     O1466   2.404       .  S
Zr1459     O1467   2.366       .  S
Zr1459     O1468   2.399       .  S
Zr1460     O1479   2.438       .  S
Zr1460     O1472   2.435       .  S
Zr1460     O1473   2.433       .  S
Zr1460     O1466   2.377       .  S
Zr1460     O1467   2.381       .  S
Zr1461     O1463   2.434       .  S
Zr1461     O1485   2.436       .  S
Zr1461     O1487   2.506       .  S
Zr1461     O1465   2.390       .  S
Zr1461     O1468   2.394       .  S
Zr1462     O1488   2.437       .  S
Zr1462     O1489   2.433       .  S
Zr1462     O1464   2.435       .  S
Zr1462     O1465   2.395       .  S
Zr1462     O1466   2.419       .  S
O1463      H1500   0.990       .  S
O1464      H1495   0.990       .  S
O1464      H1509   0.989       .  S
O1466      H1492   0.966       .  S
O1467     Zr1477   2.390       .  S
O1468     Zr1477   2.384       .  S
O1468      H1493   0.965       .  S
C1469      C1537   1.481       .  S
C1471      C1732   1.504       .  S
O1472      H1508   0.990       .  S
O1473      C1475   1.281       .  A
O1474      C1475   1.285       .  A
C1475      C1533   1.477       .  S
O1476     Zr1477   2.439       .  S
O1476      H1505   0.990       .  S
Zr1477     O1480   2.435       .  S
Zr1477     O1481   2.441       .  S
Zr1477     O1482   2.392       .  S
O1478      C1483   1.288       .  A
O1479      H1496   0.990       .  S
O1479      H1511   0.990       .  S
O1480      H1497   0.990       .  S
O1481      H1501   0.990       .  S
O1481      H1510   0.990       .  S
O1482      C1483   1.277       .  A
C1483      C1549   1.479       .  S
O1484      H1503   0.991       .  S
O1484      H1507   0.990       .  S
O1485      H1499   0.990       .  S
O1485      H1506   0.990       .  S
O1486      C1490   1.271       .  A
O1487      C1490   1.296       .  A
O1488      H1498   0.990       .  S
O1489      H1502   0.990       .  S
C1490      C1804   1.489       .  S
C1513      C1693   1.487       .  S
C1513      N1514   1.375       .  A
C1513      N1518   1.357       .  A
N1514      C1515   1.371       .  A
C1515      N1516   1.347       .  A
N1516      C1517   1.347       .  A
C1517      C1540   1.472       .  S
C1517      N1518   1.349       .  A
C1519      C1705   1.507       .  S
C1519      N1520   1.378       .  A
C1519      N1524   1.361       .  A
N1520      C1521   1.375       .  A
C1521      N1522   1.347       .  A
N1522      C1523   1.348       .  A
C1523      C1564   1.487       .  S
C1523      N1524   1.352       .  A
C1525      C1765   1.516       .  S
C1525      N1526   1.361       .  A
C1525      N1530   1.386       .  A
N1526      C1527   1.356       .  A
C1527      C1585   1.493       .  S
C1527      N1528   1.351       .  A
N1528      C1529   1.354       .  A
C1529      N1530   1.382       .  A
C1531      N1532   1.354       .  A
C1531      N1536   1.356       .  A
N1532      C1533   1.355       .  A
C1533      N1534   1.369       .  A
N1534      C1535   1.370       .  A
C1535      N1536   1.358       .  A
C1537      C1538   1.408       .  A
C1537      C1542   1.423       .  A
C1538      C1539   1.395       .  A
C1538      H1547   1.083       .  S
C1539      C1540   1.407       .  A
C1539      S1543   1.802       .  S
C1540      C1541   1.399       .  A
C1541      C1542   1.398       .  A
C1541      H1548   1.083       .  S
C1542      S1544   1.808       .  S
S1543      H1546   1.408       .  S
S1544      H1545   1.408       .  S
C1549      C1550   1.403       .  A
C1549      C1554   1.413       .  A
C1550      C3375   1.406       .  A
C1550      H1559   1.082       .  S
C1551      C3374   1.409       .  A
C1551      C1552   1.422       .  A
C1551      S1555   1.802       .  S
C1552      C3377   1.406       .  A
C1553      C3376   1.409       .  A
C1553      C1554   1.394       .  A
C1553      H1560   1.084       .  S
C1554      S1556   1.807       .  S
S1555      H1558   1.407       .  S
S1556      H1557   1.407       .  S
C1561      C1562   1.399       .  A
C1562      H1571   1.084       .  S
C1563      C1564   1.417       .  A
C1563      S1567   1.809       .  S
C1564      C1565   1.410       .  A
C1565      C1566   1.393       .  A
C1565      H1572   1.082       .  S
C1566      S1568   1.806   1_565  S
S1567      H1570   1.407   1_565  S
C1573      C1574   1.404       .  A
C1573      C3402   1.420       .  A
C1574      C3399   1.385       .  A
C1574      H1583   1.083       .  S
C1575      C3398   1.396       .  A
C1575      C1576   1.416   1_655  A
C1575      S1579   1.801       .  S
C1576      C1577   1.409       .  A
C1577      C1578   1.381   1_455  A
C1577      H1584   1.081       .  S
C1578      C3397   1.400       .  A
C1578      S1580   1.811       .  S
S1579      H1582   1.408   1_655  S
S1580      H3405   1.406   1_655  S
H1581      S3404   1.407       .  S
C1585      C1586   1.411       .  A
C1585      C1590   1.415   1_565  A
C1586      H1595   1.082       .  S
C1587      C1588   1.409       .  A
C1587      S1591   1.805       .  S
C1588      C1589   1.407       .  A
C1589      H1596   1.084       .  S
C1590      S1592   1.803       .  S
S1591      H1594   1.408       .  S
S1592      H1593   1.409   1_545  S
C1597      C1598   1.399       .  A
C1597      C1602   1.407       .  A
C1598      C1599   1.401       .  A
C1598      H1607   1.080       .  S
C1599      C1600   1.421       .  A
C1599      S1603   1.806       .  S
C1600      C1601   1.406       .  A
C1601      C1602   1.397       .  A
C1601      H1608   1.083       .  S
C1602      S1604   1.796       .  S
S1603      H1606   1.407       .  S
S1604      H1605   1.409       .  S
C1609      C1610   1.412       .  A
C1609      C1614   1.411       .  A
C1610      C1611   1.409       .  A
C1610      H1619   1.084       .  S
C1611      C1612   1.413   1_556  A
C1611      S1615   1.799       .  S
C1612      C1613   1.416       .  A
C1613      C1614   1.413   1_554  A
C1613      H1620   1.084       .  S
C1614      S1616   1.803       .  S
S1615      H1618   1.406   1_556  S
S1616      H1617   1.404       .  S
C1621      C1622   1.420       .  A
C1621      C1626   1.412       .  A
C1622      C1623   1.401       .  A
C1622      H1631   1.083       .  S
C1623      C1624   1.410       .  A
C1623      S1627   1.803       .  S
C1624      C1625   1.414       .  A
C1625      C1626   1.406       .  A
C1625      H1632   1.083       .  S
C1626      S1628   1.799       .  S
S1627      H1630   1.407       .  S
S1628      H1629   1.408       .  S
C1633      C1634   1.409       .  A
C1633      C1638   1.414       .  A
C1634      C1635   1.419   1_556  A
C1634      H1643   1.083       .  S
C1635      C1636   1.414       .  A
C1635      S1639   1.801       .  S
C1636      C1637   1.404       .  A
C1637      C1638   1.404   1_554  A
C1637      H1644   1.080       .  S
C1638      S1640   1.805       .  S
S1639      H1642   1.407   1_554  S
S1640      H1641   1.407       .  S
C1645      C3470   1.400       .  A
C1645      C3474   1.412       .  A
C1646      C3469   1.402       .  A
C1646      C1647   1.399       .  A
C1646      H1655   1.081       .  S
C1647      C1648   1.415       .  A
C1647      S1651   1.802       .  S
C1648      C1649   1.405       .  A
C1649      C1650   1.392       .  A
C1649      H1656   1.083       .  S
C1650      C3469   1.415       .  A
C1650      S3476   1.805       .  S
S1651      H1654   1.408       .  S
S1652      C3474   1.801       .  S
S1652      H1653   1.405       .  S
C1657      C1658   1.411       .  A
C1657      C1662   1.412       .  A
C1658      C1659   1.404       .  A
C1658      H1667   1.084       .  S
C1659      C1660   1.408       .  A
C1659      S1663   1.802       .  S
C1660      C1661   1.408       .  A
C1661      C1662   1.412       .  A
C1661      H1668   1.083       .  S
C1662      S1664   1.805       .  S
S1663      H1666   1.406       .  S
S1664      H1665   1.407       .  S
C1669      C1670   1.406       .  A
C1669      C1674   1.412       .  A
C1670      C1671   1.396       .  A
C1670      H1679   1.084       .  S
C1671      C1672   1.415       .  A
C1671      S1675   1.805       .  S
C1672      C1673   1.404       .  A
C1673      C1674   1.393       .  A
C1673      H1680   1.084       .  S
C1674      S1676   1.801       .  S
S1675      H1678   1.406       .  S
S1676      H1677   1.405       .  S
C1681      C1682   1.407       .  A
C1681      C1686   1.415       .  A
C1682      C1683   1.403       .  A
C1682      H1691   1.083       .  S
C1683      C1684   1.414       .  A
C1683      S1687   1.809       .  S
C1684      C1685   1.411       .  A
C1685      C1686   1.410       .  A
C1685      H1692   1.084       .  S
C1686      S1688   1.801       .  S
S1687      H1690   1.406       .  S
S1688      H1689   1.407       .  S
C1693      C1694   1.410       .  A
C1693      C1698   1.414       .  A
C1694      C1695   1.398       .  A
C1694      H1703   1.084       .  S
C1695      C1696   1.406       .  A
C1695      S1699   1.802       .  S
C1696      C1697   1.408       .  A
C1697      C1698   1.406       .  A
C1697      H1704   1.084       .  S
C1698      S1700   1.799       .  S
S1699      H1702   1.404       .  S
S1700      H1701   1.407       .  S
C1705      C1706   1.415       .  A
C1705      C1710   1.414       .  A
C1706      C1707   1.406   1_556  A
C1706      H1715   1.083       .  S
C1707      C1708   1.409       .  A
C1707      S1711   1.797       .  S
C1708      C1709   1.416       .  A
C1709      C1710   1.409   1_554  A
C1709      H1716   1.084       .  S
C1710      S1712   1.798       .  S
S1711      H1714   1.407       .  S
S1712      H1713   1.407       .  S
C1717      C1722   1.408       .  A
C1718      C1719   1.405       .  A
C1718      H1727   1.084       .  S
C1719      C1720   1.421       .  A
C1719      S1723   1.809       .  S
C1720      C1721   1.411       .  A
C1721      H1728   1.083       .  S
C1722      S1724   1.804       .  S
S1723      H1726   1.408       .  S
S1724      H1725   1.407       .  S
C1729      C1730   1.400       .  A
C1729      C1734   1.430       .  A
C1730      C1731   1.408       .  A
C1730      H1739   1.083       .  S
C1731      C1732   1.426       .  A
C1731      S1735   1.802       .  S
C1732      C1733   1.399       .  A
C1733      C1734   1.412       .  A
C1733      H1740   1.083       .  S
C1734      S1736   1.808       .  S
S1735      H1738   1.408       .  S
S1736      H1737   1.407       .  S
C1741      C1742   1.412       .  A
C1741      C1746   1.408       .  A
C1742      C1743   1.408       .  A
C1742      H1751   1.083   1_556  S
C1743      C1744   1.413       .  A
C1743      S1747   1.804       .  S
C1744      C1745   1.419       .  A
C1745      C1746   1.405       .  A
C1745      H1752   1.084       .  S
C1746      S1748   1.801       .  S
S1747      H1750   1.407       .  S
S1748      H1749   1.406       .  S
C1753      C1754   1.409       .  A
C1753      C1758   1.416       .  A
C1754      C1755   1.414   1_554  A
C1754      H1763   1.082       .  S
C1755      C1756   1.419       .  A
C1755      S1759   1.807       .  S
C1756      C1757   1.407       .  A
C1757      C1758   1.403   1_556  A
C1757      H1764   1.084       .  S
C1758      S1760   1.797       .  S
S1759      H1762   1.407       .  S
S1760      H1761   1.407       .  S
C1765      C1766   1.419       .  A
C1765      C1770   1.412       .  A
C1766      C1767   1.421       .  A
C1766      H1775   1.084       .  S
C1767      C1768   1.415       .  A
C1767      S1771   1.802       .  S
C1768      C1769   1.415       .  A
C1769      C1770   1.410       .  A
C1769      H1776   1.081       .  S
C1770      S1772   1.799       .  S
S1771      H1774   1.403       .  S
S1772      H1773   1.404       .  S
C1777      C2783   1.464       .  S
C1777      C1778   1.401       .  A
C1777      C1782   1.405       .  A
C1778      C1779   1.403       .  A
C1778      H1787   1.083       .  S
C1779      C1780   1.419       .  A
C1779      S1783   1.808       .  S
C1780      C1781   1.408       .  A
C1781      C1782   1.390       .  A
C1781      H1788   1.082       .  S
C1782      S3608   1.802       .  S
S1783      H1786   1.407       .  S
S1784      C3606   1.803       .  S
S1784      H1785   1.406       .  S
C1789      C1790   1.400       .  A
C1789      C1794   1.408       .  A
C1790      C1791   1.398       .  A
C1790      H1799   1.084       .  S
C1791      C1792   1.418       .  A
C1791      S1795   1.803       .  S
C1792      C1793   1.406       .  A
C1793      C1794   1.393       .  A
C1793      H1800   1.084       .  S
S1795      H1798   1.408       .  S
S1796      H1797   1.406       .  S
C1801      C1802   1.410       .  A
C1801      C1806   1.414       .  A
C1802      C1803   1.411       .  A
C1802      H1811   1.084   1_556  S
C1803      C1804   1.413       .  A
C1803      S1807   1.802       .  S
C1804      C1805   1.407       .  A
C1805      C1806   1.405       .  A
C1805      H1812   1.084       .  S
C1806      S1808   1.806       .  S
S1807      H1810   1.402       .  S
S1808      H1809   1.404       .  S
C1813      C1814   1.405       .  A
C1813      C1818   1.415       .  A
C1814      C1815   1.398       .  A
C1814      H1823   1.083       .  S
C1815      C1816   1.413       .  A
C1815      S1819   1.801       .  S
C1816      C1817   1.403       .  A
C1817      C1818   1.395       .  A
C1817      H1824   1.084       .  S
C1818      S1820   1.800       .  S
S1819      H1822   1.408       .  S
S1820      H1821   1.408       .  S
C1825      C1886   1.527       .  S
C1825      N2738   1.374       .  A
N1826      C2737   1.372   1_545  A
N1826      C1827   1.369       .  A
C1827      C2089   1.518       .  S
N1828      C2741   1.376   1_545  A
C1829      C2011   1.519       .  S
C1829      N2740   1.376       .  A
C1829      N1830   1.379       .  A
C1831      C1867   1.465       .  S
C1831      N1832   1.356       .  A
C1831      N1836   1.359       .  A
N1832      C1833   1.355       .  A
C1833      C2108   1.479       .  S
C1833      N1834   1.366       .  A
N1834      C1835   1.368       .  A
C1835      C2030   1.477       .  S
C1835      N1836   1.362       .  A
C1837      C2713   1.488   1_554  S
C1837      N1838   1.377       .  A
C1837      N1842   1.352       .  A
N1838      C1839   1.375       .  A
C1839      C1957   1.482       .  S
C1839      N1840   1.355       .  A
N1840      C1841   1.352       .  A
C1841      C2728   1.479       .  S
C1841      N1842   1.344       .  A
Zr1843     O1844   2.440       .  S
Zr1843     O1845   2.451       .  S
Zr1843     O1846   2.471       .  S
Zr1843     O1849   2.436       .  S
Zr1843     O1851   2.377       .  S
Zr1843     O1852   2.396       .  S
Zr1843     O1853   2.406       .  S
Zr1843     O1854   2.411       .  S
O1844      H1900   0.990       .  S
O1844      H1908   0.991       .  S
O1845      C1865   1.287       .  A
O1846      C1867   1.288       .  A
O1847     Zr1857   2.405       .  S
O1847      C1866   1.280       .  A
O1848     Zr1856   2.398       .  S
O1848      C1867   1.277       .  A
O1849      C1866   1.284       .  A
O1850     Zr1858   2.447       .  S
O1850      C1865   1.286       .  A
O1851     Zr1856   2.378       .  S
O1851     Zr1858   2.371       .  S
O1852     Zr1857   2.394       .  S
O1852     Zr1858   2.367       .  S
O1852      H1887   0.966       .  S
O1853     Zr1856   2.404       .  S
O1853     Zr1873   2.396       .  S
O1853      H1890   0.964       .  S
O1854     Zr1857   2.392       .  S
O1854     Zr1873   2.383       .  S
Zr1855     O1880   2.442       .  S
Zr1855     O1874   2.546       .  S
Zr1855     O1882   2.564       .  S
Zr1855     O1870   2.440       .  S
Zr1855     O1861   2.424       .  S
Zr1855     O1862   2.448       .  S
Zr1855     O1863   2.351       .  S
Zr1855     O1864   2.394       .  S
Zr1856     O1875   2.433       .  S
Zr1856     O1868   2.424       .  S
Zr1856     O1869   2.404       .  S
Zr1856     O1862   2.405       .  S
Zr1856     O1863   2.350       .  S
Zr1857     O1859   2.421       .  S
Zr1857     O1881   2.441       .  S
Zr1857     O1883   2.421       .  S
Zr1857     O1861   2.384       .  S
Zr1857     O1864   2.417       .  S
Zr1858     O1884   2.434       .  S
Zr1858     O1885   2.425       .  S
Zr1858     O1860   2.441       .  S
Zr1858     O1861   2.419       .  S
Zr1858     O1862   2.396       .  S
O1859      H2808   0.991       .  S
O1860      H1891   0.990       .  S
O1860      H1905   0.990       .  S
O1862      H1888   0.964       .  S
O1863     Zr1873   2.343       .  S
O1864     Zr1873   2.399       .  S
O1864      H1889   0.966       .  S
C1865      C2665   1.507       .  S
C1866      C3613   1.460       .  S
O1868      H1904   0.990       .  S
O1869      C1871   1.279       .  A
O1870      C1871   1.289       .  A
O1872     Zr1873   2.437       .  S
O1872      H1901   0.990       .  S
Zr1873     O1876   2.438       .  S
Zr1873     O1877   2.431       .  S
Zr1873     O1878   2.426       .  S
O1874      C1879   1.305       .  A
O1875      H1892   0.990       .  S
O1875      H1907   0.990       .  S
O1876      H1893   0.990       .  S
O1877      H1897   0.990       .  S
O1877      H1906   0.990       .  S
O1878      C1879   1.283       .  A
C1879      C2680   1.511       .  S
O1880      H1899   0.990       .  S
O1881      H1895   0.990       .  S
O1881      H1902   0.990       .  S
O1882      C1886   1.307       .  A
O1883      C1886   1.279       .  A
O1884      H1894   0.990       .  S
H1896      O2771   0.991       .  S
C1909      C2653   1.505   1_554  S
C1909      N1910   1.379       .  A
C1909      N1914   1.355       .  A
N1910      C1911   1.378       .  A
C1911      C1949   1.482       .  S
C1911      N1912   1.353       .  A
N1912      C1913   1.348       .  A
C1913      C2704   1.485       .  S
C1913      N1914   1.350       .  A
C1915      C2641   1.504       .  S
C1915      N1916   1.375       .  A
C1915      N1920   1.353       .  A
N1916      C1917   1.377       .  A
C1917      C1944   1.488       .  S
C1917      N1918   1.354       .  A
N1918      C1919   1.354       .  A
C1919      C2692   1.482       .  S
C1919      N1920   1.354       .  A
Zr1921     O1922   2.438       .  S
Zr1921     O1923   2.468       .  S
Zr1921     O1924   2.456       .  S
Zr1921     O1927   2.420       .  S
Zr1921     O1929   2.373       .  S
Zr1921     O1930   2.402       .  S
Zr1921     O1931   2.429       .  S
Zr1921     O1932   2.418       .  S
O1922      H1978   0.990       .  S
O1922      H1986   0.990       .  S
O1923      C1943   1.288       .  A
O1924      C1945   1.284       .  A
O1925     Zr1935   2.499       .  S
O1925      C1944   1.301       .  A
O1926     Zr1934   2.466       .  S
O1926      C1945   1.294       .  A
O1927      C1944   1.281       .  A
O1928     Zr1936   2.428       .  S
O1928      C1943   1.286       .  A
O1929     Zr1934   2.370       .  S
O1929     Zr1936   2.353       .  S
O1930     Zr1935   2.386       .  S
O1930     Zr1936   2.384       .  S
O1930      H1965   0.965       .  S
O1931     Zr1934   2.380       .  S
O1931     Zr1951   2.430       .  S
O1931      H1968   0.966       .  S
O1932     Zr1935   2.377       .  S
O1932     Zr1951   2.397       .  S
Zr1933     O1958   2.444       .  S
Zr1933     O1952   2.453       .  S
Zr1933     O1960   2.411       .  S
Zr1933     O1948   2.467       .  S
Zr1933     O1939   2.418       .  S
Zr1933     O1940   2.403       .  S
Zr1933     O1941   2.383       .  S
Zr1933     O1942   2.402       .  S
Zr1934     O1953   2.435       .  S
Zr1934     O1946   2.419       .  S
Zr1934     O1947   2.445       .  S
Zr1934     O1940   2.403       .  S
Zr1934     O1941   2.396       .  S
Zr1935     O1937   2.437       .  S
Zr1935     O1959   2.437       .  S
Zr1935     O1961   2.493       .  S
Zr1935     O1939   2.397       .  S
Zr1935     O1942   2.377       .  S
Zr1936     O1962   2.437       .  S
Zr1936     O1963   2.436       .  S
Zr1936     O1938   2.436       .  S
Zr1936     O1939   2.375       .  S
Zr1936     O1940   2.411       .  S
O1937      H1974   0.990       .  S
O1938      H1969   0.990       .  S
O1938      H1983   0.990       .  S
O1940      H1966   0.966       .  S
O1941     Zr1951   2.375       .  S
O1942     Zr1951   2.377       .  S
O1942      H1967   0.963       .  S
C1943      C2057   1.489       .  S
C1945      C2061   1.492       .  S
O1946      H1982   0.990       .  S
O1947      C1949   1.285       .  A
O1948      C1949   1.287       .  A
O1950     Zr1951   2.432       .  S
O1950      H1979   0.991       .  S
Zr1951     O1954   2.437       .  S
Zr1951     O1955   2.439       .  S
Zr1951     O1956   2.468       .  S
O1952      C1957   1.284       .  A
O1953      H1970   0.990       .  S
O1953      H1985   0.988       .  S
O1954      H1971   0.990       .  S
O1955      H1975   0.990       .  S
O1955      H1984   0.990       .  S
O1956      C1957   1.292       .  A
O1958      H1977   0.991       .  S
O1958      H1981   0.991       .  S
O1959      H1973   0.990       .  S
O1959      H1980   0.990       .  S
O1960      C1964   1.279       .  A
O1961      C1964   1.300       .  A
O1962      H1972   0.990       .  S
O1963      H1976   0.990       .  S
C1964      C2135   1.480       .  S
Zr1987     O1988   2.438       .  S
Zr1987     O1989   2.408       .  S
Zr1987     O1990   2.491       .  S
Zr1987     O1993   2.531       .  S
Zr1987     O1995   2.392       .  S
Zr1987     O1996   2.397       .  S
Zr1987     O1997   2.420       .  S
Zr1987     O1998   2.406       .  S
O1988      H2044   0.990       .  S
O1988      H2052   0.990       .  S
O1989      C2009   1.282       .  A
O1990      C2011   1.296       .  A
O1991     Zr2001   2.376       .  S
O1991      C2010   1.276       .  A
O1992     Zr2000   2.498       .  S
O1992      C2011   1.298       .  A
O1993      C2010   1.304       .  A
O1994     Zr2002   2.418       .  S
O1994      C2009   1.282       .  A
O1995     Zr2000   2.384       .  S
O1995     Zr2002   2.359       .  S
O1996     Zr2001   2.399       .  S
O1996     Zr2002   2.377       .  S
O1996      H2031   0.967       .  S
O1997     Zr2000   2.421       .  S
O1997     Zr2017   2.400       .  S
O1997      H2034   0.966       .  S
O1998     Zr2001   2.405       .  S
O1998     Zr2017   2.395       .  S
Zr1999     O2024   2.441       .  S
Zr1999     O2018   2.424       .  S
Zr1999     O2026   2.454       .  S
Zr1999     O2014   2.382       .  S
Zr1999     O2005   2.387       .  S
Zr1999     O2006   2.418       .  S
Zr1999     O2007   2.388       .  S
Zr1999     O2008   2.370       .  S
Zr2000     O2019   2.434       .  S
Zr2000     O2012   2.434       .  S
Zr2000     O2013   2.509       .  S
Zr2000     O2006   2.409       .  S
Zr2000     O2007   2.389       .  S
Zr2001     O2003   2.435       .  S
Zr2001     O2025   2.436       .  S
Zr2001     O2027   2.437       .  S
Zr2001     O2005   2.373       .  S
Zr2001     O2008   2.383       .  S
Zr2002     O2028   2.437       .  S
Zr2002     O2029   2.429       .  S
Zr2002     O2004   2.437       .  S
Zr2002     O2005   2.397       .  S
Zr2002     O2006   2.379       .  S
O2003      H2040   0.989       .  S
O2004      H2035   0.990       .  S
O2004      H2049   0.990       .  S
O2006      H2032   0.965       .  S
O2007     Zr2017   2.367       .  S
O2008     Zr2017   2.379       .  S
O2008      H2033   0.965       .  S
C2009      C2725   1.476       .  S
C2010      C2620   1.510       .  S
O2012      H2048   0.990       .  S
O2013      C2015   1.300       .  A
O2014      C2015   1.276       .  A
C2015      C2608   1.499       .  S
O2016     Zr2017   2.436       .  S
O2016      H2957   0.990       .  S
Zr2017     O2020   2.435       .  S
Zr2017     O2021   2.438       .  S
Zr2017     O2022   2.417       .  S
O2018      C2023   1.281       .  A
O2019      H2036   0.990       .  S
O2019      H2051   0.990       .  S
O2020      H2949   0.990       .  S
O2021      H2953   0.990       .  S
O2021      H2050   0.990       .  S
O2022      C2023   1.282       .  A
C2023      C2629   1.468       .  S
O2024      H2043   0.990       .  S
O2024      H2047   0.991       .  S
O2025      H2039   0.990       .  S
O2025      H2046   0.990       .  S
O2026      C2030   1.287       .  A
O2027      C2030   1.283       .  A
O2028      H2038   0.990       .  S
O2029      H2042   0.990       .  S
H2037      O2932   0.990       .  S
H2041      O2933   0.990       .  S
H2045      O2928   0.990       .  S
C2053      C2593   1.510       .  S
C2053      N2054   1.368       .  A
C2053      N2058   1.378       .  A
N2054      C2055   1.358       .  A
C2055      C2632   1.504       .  S
C2055      N2056   1.348       .  A
N2056      C2057   1.353       .  A
C2057      N2058   1.372       .  A
C2059      C2569   1.510       .  S
C2059      N2060   1.384       .  A
C2059      N2064   1.359       .  A
N2060      C2061   1.378       .  A
C2061      N2062   1.350       .  A
N2062      C2063   1.346       .  A
C2063      C2581   1.481       .  S
C2063      N2064   1.349       .  A
Zr2065     O2066   2.436       .  S
Zr2065     O2067   2.410       .  S
Zr2065     O2068   2.459       .  S
Zr2065     O2071   2.504       .  S
Zr2065     O2073   2.391       .  S
Zr2065     O2074   2.385       .  S
Zr2065     O2075   2.416       .  S
Zr2065     O2076   2.394       .  S
O2066      H2122   0.990       .  S
O2066      H2130   0.990       .  S
O2067      C2087   1.283       .  A
O2068      C2089   1.289       .  A
O2069     Zr2079   2.379       .  S
O2069      C2088   1.276       .  A
O2070     Zr2078   2.522       .  S
O2070      C2089   1.302       .  A
O2071      C2088   1.300       .  A
O2072     Zr2080   2.432       .  S
O2072      C2087   1.281       .  A
O2073     Zr2078   2.388       .  S
O2073     Zr2080   2.360       .  S
O2074     Zr2079   2.398       .  S
O2074     Zr2080   2.376       .  S
O2074      H2109   0.965       .  S
O2075     Zr2078   2.426       .  S
O2075     Zr2095   2.404       .  S
O2075      H2112   0.967       .  S
O2076     Zr2079   2.408       .  S
O2076     Zr2095   2.377       .  S
Zr2077     O2102   2.439       .  S
Zr2077     O2096   2.423       .  S
Zr2077     O2104   2.444       .  S
Zr2077     O2092   2.388       .  S
Zr2077     O2083   2.402       .  S
Zr2077     O2084   2.434       .  S
Zr2077     O2085   2.393       .  S
Zr2077     O2086   2.365       .  S
Zr2078     O2097   2.436       .  S
Zr2078     O2090   2.435       .  S
Zr2078     O2091   2.516       .  S
Zr2078     O2084   2.434       .  S
Zr2078     O2085   2.398       .  S
Zr2079     O2081   2.435       .  S
Zr2079     O2103   2.437       .  S
Zr2079     O2105   2.453       .  S
Zr2079     O2083   2.375       .  S
Zr2079     O2086   2.380       .  S
Zr2080     O2106   2.432       .  S
Zr2080     O2107   2.436       .  S
Zr2080     O2082   2.439       .  S
Zr2080     O2083   2.416       .  S
Zr2080     O2084   2.395       .  S
O2081      H2118   0.990       .  S
O2082      H2113   0.990       .  S
O2082      H2127   0.990       .  S
O2084      H2110   0.965       .  S
O2085     Zr2095   2.367       .  S
O2086     Zr2095   2.380       .  S
O2086      H2111   0.966       .  S
C2087      C2584   1.481       .  S
C2088      C2533   1.509       .  S
O2090      H2126   0.990       .  S
O2091      C2093   1.291       .  A
O2092      C2093   1.264       .  A
C2093      C2548   1.516       .  S
O2094     Zr2095   2.436       .  S
Zr2095     O2099   2.438       .  S
Zr2095     O2100   2.421       .  S
O2096      C2101   1.283       .  A
O2097      H2114   0.989       .  S
O2097      H2129   0.990       .  S
O2098      H2115   0.990       .  S
O2099      H2128   0.990       .  S
O2100      C2101   1.283       .  A
C2101      C2557   1.475       .  S
O2102      H2121   0.990       .  S
O2102      H2125   0.990       .  S
O2103      H2117   0.990       .  S
O2103      H2124   0.989       .  S
O2104      C2108   1.286       .  A
O2105      C2108   1.286       .  A
O2106      H2116   0.990       .  S
O2107      H2120   0.990       .  S
C2131      C2524   1.506       .  S
C2131      N2132   1.358       .  A
C2131      N2136   1.371       .  A
N2132      C2133   1.355       .  A
C2133      C2560   1.484       .  S
C2133      N2134   1.353       .  A
N2134      C2135   1.352       .  A
C2135      N2136   1.374       .  A
C2137      C2249   1.524       .  S
C2137      N2138   1.373       .  A
C2137      N3054   1.372       .  A
C2139      C2166   1.502       .  S
N2140      C3053   1.376   1_545  A
C2141      C2382   1.510       .  S
C2141      N3052   1.372       .  A
C2141      N2142   1.379       .  A
N2142      C3049   1.374       .  A
Zr2143     O2144   2.436       .  S
Zr2143     O2145   2.440       .  S
Zr2143     O2146   2.507       .  S
Zr2143     O2149   2.437       .  S
Zr2143     O2151   2.387       .  S
Zr2143     O2152   2.399       .  S
Zr2143     O2153   2.410       .  S
Zr2143     O2154   2.418       .  S
O2144      H2200   0.990       .  S
O2144      H2208   0.990       .  S
O2145      C2165   1.286       .  A
O2146      C2167   1.299       .  A
O2147     Zr2157   2.517       .  S
O2147      C2166   1.301       .  A
O2148     Zr2156   2.392       .  S
O2148      C2167   1.277       .  A
O2149      C2166   1.286       .  A
O2150     Zr2158   2.403       .  S
O2150      C2165   1.279       .  A
O2151     Zr2156   2.401       .  S
O2151     Zr2158   2.379       .  S
O2152     Zr2157   2.382       .  S
O2152     Zr2158   2.372       .  S
O2152      H2187   0.966       .  S
O2153     Zr2156   2.404       .  S
O2153     Zr2173   2.402       .  S
O2153      H2190   0.966       .  S
O2154     Zr2157   2.408       .  S
O2154     Zr2173   2.403       .  S
Zr2155     O2180   2.447       .  S
Zr2155     O2174   2.428       .  S
Zr2155     O2182   2.377       .  S
Zr2155     O2170   2.450       .  S
Zr2155     O2161   2.408       .  S
Zr2155     O2162   2.383       .  S
Zr2155     O2163   2.365       .  S
Zr2155     O2164   2.398       .  S
Zr2156     O2175   2.437       .  S
Zr2156     O2168   2.436       .  S
Zr2156     O2169   2.435       .  S
Zr2156     O2162   2.376       .  S
Zr2156     O2163   2.384       .  S
Zr2157     O2159   2.434       .  S
Zr2157     O2181   2.439       .  S
Zr2157     O2183   2.522       .  S
Zr2157     O2161   2.399       .  S
Zr2157     O2164   2.389       .  S
Zr2158     O2184   2.435       .  S
Zr2158     O2185   2.434       .  S
Zr2158     O2160   2.436       .  S
Zr2158     O2161   2.380       .  S
Zr2158     O2162   2.389       .  S
O2159      H2196   0.990       .  S
O2160      H2191   0.990       .  S
O2160      H2205   0.989       .  S
O2162      H2188   0.965       .  S
O2163     Zr2173   2.377       .  S
O2164     Zr2173   2.375       .  S
O2164      H2189   0.965       .  S
C2165      C2512   1.479       .  S
C2167      C2656   1.507       .  S
O2168      H2204   0.990       .  S
O2169      C2171   1.282       .  A
O2170      C2171   1.287       .  A
C2171      C2447   1.473       .  S
O2172     Zr2173   2.435       .  S
O2172      H2201   0.990       .  S
Zr2173     O2176   2.433       .  S
Zr2173     O2177   2.439       .  S
Zr2173     O2178   2.436       .  S
O2174      C2179   1.284       .  A
O2175      H2192   0.990       .  S
O2175      H2207   0.990       .  S
O2176      H2193   0.989       .  S
O2177      H3109   0.990   1_545  S
O2177      H2206   0.990       .  S
O2178      C2179   1.285       .  A
C2179      C2500   1.479       .  S
O2180      H2199   0.990       .  S
O2180      H2203   0.990       .  S
O2181      H2195   0.990       .  S
O2181      H2202   0.990       .  S
O2182      C2186   1.275       .  A
O2183      C2186   1.304       .  A
O2184      H2194   0.990       .  S
O2185      H2198   0.989       .  S
C2186      C2572   1.492       .  S
H2197      O3089   0.990       .  S
C2209      C2545   1.492       .  S
C2209      N2210   1.379       .  A
C2209      N2214   1.351       .  A
N2210      C2211   1.378       .  A
C2211      C2329   1.495       .  S
C2211      N2212   1.357       .  A
N2212      C2213   1.357       .  A
C2213      C2509   1.486       .  S
C2213      N2214   1.350       .  A
C2215      C2536   1.494       .  S
C2215      N2216   1.350       .  A
C2215      N2220   1.371       .  A
N2216      C2217   1.347       .  A
C2217      C2488   1.452       .  S
C2217      N2218   1.350       .  A
N2218      C2219   1.350       .  A
C2219      C2317   1.476       .  S
C2219      N2220   1.375       .  A
Zr2221     O2222   2.432       .  S
Zr2221     O2223   2.433       .  S
Zr2221     O2224   2.394       .  S
Zr2221     O2227   2.419       .  S
Zr2221     O2229   2.386       .  S
Zr2221     O2230   2.371       .  S
Zr2221     O2231   2.413       .  S
Zr2221     O2232   2.388       .  S
O2222      H2278   0.990       .  S
O2222      H2286   0.989       .  S
O2223      C2243   1.282       .  A
O2224      C2245   1.276       .  A
O2225     Zr2235   2.432       .  S
O2225      C2244   1.284       .  A
O2226     Zr2234   2.422       .  S
O2226      C2245   1.285       .  A
O2227      C2244   1.281       .  A
O2228     Zr2236   2.482       .  S
O2228      C2243   1.290       .  A
O2229     Zr2234   2.400       .  S
O2229     Zr2236   2.360       .  S
O2230     Zr2235   2.381       .  S
O2230     Zr2236   2.363       .  S
O2230      H2265   0.967       .  S
O2231     Zr2234   2.400       .  S
O2231     Zr2251   2.388       .  S
O2231      H2268   0.974       .  S
O2232     Zr2235   2.385       .  S
O2232     Zr2251   2.396       .  S
Zr2233     O2258   2.443       .  S
Zr2233     O2252   2.508       .  S
Zr2233     O2260   2.436       .  S
Zr2233     O2248   2.547       .  S
Zr2233     O2239   2.439       .  S
Zr2233     O2240   2.429       .  S
Zr2233     O2241   2.381       .  S
Zr2233     O2242   2.395       .  S
Zr2234     O2253   2.428       .  S
Zr2234     O2246   2.435       .  S
Zr2234     O2247   2.446       .  S
Zr2234     O2240   2.396       .  S
Zr2234     O2241   2.402       .  S
Zr2235     O2237   2.437       .  S
Zr2235     O2259   2.437       .  S
Zr2235     O2261   2.409       .  S
Zr2235     O2239   2.407       .  S
Zr2235     O2242   2.380       .  S
Zr2236     O2262   2.431       .  S
Zr2236     O2263   2.439       .  S
Zr2236     O2238   2.434       .  S
Zr2236     O2239   2.404       .  S
Zr2236     O2240   2.417       .  S
O2237      H2274   0.990       .  S
O2238      H2269   0.989       .  S
O2238      H2283   0.991       .  S
O2240      H2266   0.964       .  S
O2241     Zr2251   2.384       .  S
O2242     Zr2251   2.376       .  S
O2242      H2267   0.963       .  S
C2243      C2596   1.508       .  S
C2244      C2443   1.462       .  S
C2245      C2485   1.458       .  S
O2246      H2282   0.990       .  S
O2247      C2249   1.286       .  A
O2248      C2249   1.305       .  A
O2250     Zr2251   2.431       .  S
O2250      H2279   0.990       .  S
Zr2251     O2254   2.434       .  S
Zr2251     O2255   2.440       .  S
Zr2251     O2256   2.398       .  S
O2252      C2257   1.295       .  A
O2253      H2270   0.990       .  S
O2253      H2285   0.989       .  S
O2254      H2271   0.989       .  S
O2255      H2275   0.991       .  S
O2255      H2284   0.990       .  S
O2256      C2257   1.275       .  A
C2257      C2521   1.487       .  S
O2258      H2277   0.990       .  S
O2258      H2281   0.990       .  S
O2259      H2273   0.990       .  S
O2259      H2280   0.990       .  S
O2260      C2264   1.287       .  A
O2261      C2264   1.279       .  A
O2262      H2272   0.990       .  S
O2263      H2276   0.990       .  S
C2264      C2473   1.459       .  S
C2287      C2668   1.505       .  S
C2287      N2288   1.361       .  A
C2287      N2292   1.365       .  A
N2288      C2289   1.359       .  A
C2289      C2464   1.491       .  S
C2289      N2290   1.357       .  A
N2290      C2291   1.351       .  A
C2291      C2321   1.477       .  S
C2291      N2292   1.367       .  A
Zr2293     O2294   2.440       .  S
Zr2293     O2295   2.484       .  S
Zr2293     O2296   2.405       .  S
Zr2293     O2299   2.452       .  S
Zr2293     O2301   2.396       .  S
Zr2293     O2302   2.386       .  S
Zr2293     O2303   2.440       .  S
Zr2293     O2304   2.433       .  S
O2294      H2350   0.991       .  S
O2294      H2358   0.990       .  S
O2295      C2315   1.289       .  A
O2296      C2317   1.277       .  A
O2297     Zr2307   2.470       .  S
O2297      C2316   1.294       .  A
O2298     Zr2306   2.498       .  S
O2298      C2317   1.300       .  A
O2299      C2316   1.282       .  A
O2300     Zr2308   2.436       .  S
O2300      C2315   1.287       .  A
O2301     Zr2306   2.397       .  S
O2301     Zr2308   2.380       .  S
O2302     Zr2307   2.404       .  S
O2302     Zr2308   2.351       .  S
O2302      H2337   0.964       .  S
O2303     Zr2306   2.405       .  S
O2303     Zr2323   2.390       .  S
O2303      H2340   0.962       .  S
O2304     Zr2307   2.372       .  S
O2304     Zr2323   2.441       .  S
Zr2305     O2330   2.439       .  S
Zr2305     O2324   2.450       .  S
Zr2305     O2332   2.445       .  S
Zr2305     O2320   2.398       .  S
Zr2305     O2311   2.407       .  S
Zr2305     O2312   2.423       .  S
Zr2305     O2313   2.384       .  S
Zr2305     O2314   2.379       .  S
Zr2306     O2325   2.435       .  S
Zr2306     O2318   2.434       .  S
Zr2306     O2319   2.496       .  S
Zr2306     O2312   2.402       .  S
Zr2306     O2313   2.379       .  S
Zr2307     O2309   2.432       .  S
Zr2307     O2331   2.452       .  S
Zr2307     O2333   2.454       .  S
Zr2307     O2311   2.406       .  S
Zr2307     O2314   2.391       .  S
Zr2308     O2334   2.434       .  S
Zr2308     O2335   2.436       .  S
Zr2308     O2310   2.437       .  S
Zr2308     O2311   2.413       .  S
Zr2308     O2312   2.371       .  S
O2309      H2346   0.990       .  S
O2310      H2341   0.990       .  S
O2310      H2355   0.990       .  S
O2312      H2338   0.965       .  S
O2313     Zr2323   2.344       .  S
O2314     Zr2323   2.361       .  S
O2314      H2339   0.964       .  S
C2315      C2441   1.498       .  S
C2316      C2427   1.488       .  S
O2318      H2354   0.990       .  S
O2319      C2321   1.300       .  A
O2320      C2321   1.279       .  A
O2322     Zr2323   2.434       .  S
O2322      H2351   0.990       .  S
Zr2323     O2326   2.435       .  S
Zr2323     O2327   2.444       .  S
Zr2323     O2328   2.494       .  S
O2324      C2329   1.283       .  A
O2325      H2342   0.989       .  S
O2325      H2357   0.989       .  S
O2326      H2343   0.989       .  S
O2327      H2347   0.989       .  S
O2327      H2356   0.990       .  S
O2328      C2329   1.297       .  A
O2330      H2349   0.990       .  S
O2330      H2353   0.990       .  S
O2331      H2345   0.990       .  S
O2331      H2352   0.989       .  S
O2332      C2336   1.285       .  A
O2333      C2336   1.289       .  A
O2334      H2344   0.990       .  S
O2335      H2348   0.990       .  S
C2336      C2433   1.471       .  S
Zr2359     O2360   2.437       .  S
Zr2359     O2361   2.397       .  S
Zr2359     O2362   2.529       .  S
Zr2359     O2365   2.490       .  S
Zr2359     O2367   2.394       .  S
Zr2359     O2368   2.400       .  S
Zr2359     O2369   2.394       .  S
Zr2359     O2370   2.412       .  S
O2360      H2416   0.990       .  S
O2360      H2424   0.990       .  S
O2361      C2381   1.278       .  A
O2362      C2383   1.305       .  A
O2363     Zr2373   2.490       .  S
O2363      C2382   1.297       .  A
O2364     Zr2372   2.371       .  S
O2364      C2383   1.273       .  A
O2365      C2382   1.297       .  A
O2366     Zr2374   2.452       .  S
O2366      C2381   1.289       .  A
O2367     Zr2372   2.401       .  S
O2367     Zr2374   2.371       .  S
O2368     Zr2373   2.384       .  S
O2368     Zr2374   2.361       .  S
O2368      H2403   0.964       .  S
O2369     Zr2372   2.409       .  S
O2369     Zr2389   2.374       .  S
O2369      H2406   0.965       .  S
O2370     Zr2373   2.416       .  S
O2370     Zr2389   2.388       .  S
Zr2371     O2396   2.441       .  S
Zr2371     O2390   2.455       .  S
Zr2371     O2398   2.392       .  S
Zr2371     O2386   2.462       .  S
Zr2371     O2377   2.416       .  S
Zr2371     O2378   2.399       .  S
Zr2371     O2379   2.361       .  S
Zr2371     O2380   2.403       .  S
Zr2372     O2391   2.437       .  S
Zr2372     O2384   2.433       .  S
Zr2372     O2385   2.439       .  S
Zr2372     O2378   2.371       .  S
Zr2372     O2379   2.376       .  S
Zr2373     O2375   2.434       .  S
Zr2373     O2397   2.437       .  S
Zr2373     O2399   2.501       .  S
Zr2373     O2377   2.393       .  S
Zr2373     O2380   2.397       .  S
Zr2374     O2400   2.436       .  S
Zr2374     O2401   2.436       .  S
Zr2374     O2376   2.433       .  S
Zr2374     O2377   2.390       .  S
Zr2374     O2378   2.422       .  S
O2375      H2412   0.990       .  S
O2376      H2407   0.990       .  S
O2376      H2421   0.989       .  S
O2378      H2404   0.965       .  S
O2379     Zr2389   2.388       .  S
O2380     Zr2389   2.379       .  S
O2380      H2405   0.967       .  S
C2381      C2449   1.482       .  S
C2383      C2644   1.503       .  S
O2384      H2420   0.990       .  S
O2385      C2387   1.283       .  A
O2386      C2387   1.287       .  A
C2387      C2445   1.481       .  S
O2388     Zr2389   2.438       .  S
O2388      H2417   0.990       .  S
Zr2389     O2392   2.435       .  S
Zr2389     O2393   2.439       .  S
Zr2389     O2394   2.387       .  S
O2390      C2395   1.287       .  A
O2391      H2408   0.990       .  S
O2391      H2423   0.990       .  S
O2392      H2409   0.990       .  S
O2393      H2413   0.990       .  S
O2393      H2422   0.990   1_655  S
O2394      C2395   1.277       .  A
C2395      C2461   1.478       .  S
O2396      H2415   0.990       .  S
O2396      H2419   0.990       .  S
O2397      H2411   0.990       .  S
O2397      H2418   0.990       .  S
O2398      C2402   1.269       .  A
O2399      C2402   1.294       .  A
O2400      H2410   0.990       .  S
O2401      H2414   0.990       .  S
C2402      C2716   1.485       .  S
C2425      C2605   1.487       .  S
C2425      N2426   1.381       .  A
C2425      N2430   1.359       .  A
N2426      C2427   1.374       .  A
C2427      N2428   1.346       .  A
N2428      C2429   1.346       .  A
C2429      C2452   1.475       .  S
C2429      N2430   1.352       .  A
C2431      C2617   1.502       .  S
C2431      N2432   1.377       .  A
C2431      N2436   1.359       .  A
N2432      C2433   1.373       .  A
C2433      N2434   1.346       .  A
N2434      C2435   1.347       .  A
C2435      C2476   1.483       .  S
C2435      N2436   1.352       .  A
C2437      C2677   1.512       .  S
C2437      N2438   1.361       .  A
C2437      N2442   1.386       .  A
N2438      C2439   1.355       .  A
C2439      C2497   1.489       .  S
C2439      N2440   1.348       .  A
N2440      C2441   1.352       .  A
C2441      N2442   1.380       .  A
C2443      N2444   1.356       .  A
C2443      N2448   1.353       .  A
N2444      C2445   1.358       .  A
C2445      N2446   1.369       .  A
N2446      C2447   1.371       .  A
C2447      N2448   1.356       .  A
C2449      C2450   1.404       .  A
C2449      C2454   1.419       .  A
C2450      C2451   1.393       .  A
C2450      H2459   1.083       .  S
C2451      C2452   1.412       .  A
C2451      S2455   1.803       .  S
C2452      C2453   1.401       .  A
C2453      C2454   1.401       .  A
C2453      H2460   1.083       .  S
C2454      S2456   1.807       .  S
S2455      H2458   1.408       .  S
S2456      H2457   1.407       .  S
C2461      C2462   1.403       .  A
C2461      C2466   1.414       .  A
C2462      H2471   1.083       .  S
C2463      C2464   1.418       .  A
C2463      S2467   1.799       .  S
C2465      C2466   1.391       .  A
C2465      H2472   1.084   1_655  S
C2466      S2468   1.803       .  S
S2467      H2470   1.409       .  S
S2468      H2469   1.407       .  S
C2473      C2474   1.398       .  A
C2473      C3390   1.405   1_545  A
C2474      C3387   1.398   1_545  A
C2474      H2483   1.084       .  S
C2475      C3386   1.400       .  A
C2475      C2476   1.416       .  A
C2475      S2479   1.809       .  S
C2476      C2477   1.410       .  A
C2477      C2478   1.394       .  A
C2477      H2484   1.082       .  S
C2478      C3385   1.402       .  A
C2478      S2480   1.806       .  S
S2479      H2482   1.407       .  S
S2480      H3393   1.407       .  S
H2481      S3392   1.407   1_565  S
C2485      C2486   1.397       .  A
C2486      H2495   1.083       .  S
C2487      C2488   1.408       .  A
C2487      S2491   1.811       .  S
C2488      C2489   1.399       .  A
C2489      C2490   1.397       .  A
C2489      H2496   1.083       .  S
C2490      S2492   1.806       .  S
S2491      H2494   1.406       .  S
C2497      C2498   1.410       .  A
C2497      C2502   1.413       .  A
C2498      C3411   1.398       .  A
C2498      H2507   1.082       .  S
C2499      C3410   1.402   1_545  A
C2499      C2500   1.409       .  A
C2499      S2503   1.806       .  S
C2500      C2501   1.404       .  A
C2501      C3414   1.399       .  A
C2501      H2508   1.084       .  S
C2502      C3413   1.399       .  A
C2502      S2504   1.803       .  S
S2503      H2506   1.408   1_545  S
S2504      H2505   1.408       .  S
C2509      C2510   1.400       .  A
C2509      C2514   1.408       .  A
C2510      C2511   1.401       .  A
C2510      H2519   1.082       .  S
C2511      C2512   1.420       .  A
C2511      S2515   1.805       .  S
C2512      C2513   1.405       .  A
C2513      C2514   1.397       .  A
C2513      H2520   1.083       .  S
C2514      S2516   1.793       .  S
S2515      H2518   1.407       .  S
S2516      H2517   1.409       .  S
C2521      C2522   1.410       .  A
C2521      C2526   1.408       .  A
C2522      C2523   1.410       .  A
C2522      H2531   1.084       .  S
C2523      C2524   1.416   1_556  A
C2523      S2527   1.798       .  S
C2524      C2525   1.413       .  A
C2525      C2526   1.405   1_554  A
C2525      H2532   1.084       .  S
C2526      S2528   1.800       .  S
S2527      H2530   1.407   1_556  S
S2528      H2529   1.405       .  S
C2533      C2534   1.422       .  A
C2533      C2538   1.412       .  A
C2534      C2535   1.404       .  A
C2534      H2543   1.083       .  S
C2535      C2536   1.407       .  A
C2535      S2539   1.802       .  S
C2536      C2537   1.413       .  A
C2537      C2538   1.404       .  A
C2537      H2544   1.081       .  S
C2538      S2540   1.800       .  S
S2539      H2542   1.406       .  S
S2540      H2541   1.408       .  S
C2545      C2546   1.414       .  A
C2545      C2550   1.406       .  A
C2546      C2547   1.420       .  A
C2546      H2555   1.083       .  S
C2547      C2548   1.416   1_556  A
C2547      S2551   1.805       .  S
C2548      C2549   1.418       .  A
C2549      C2550   1.402   1_554  A
C2549      H2556   1.081       .  S
C2550      S2552   1.803       .  S
S2551      H2554   1.406       .  S
S2552      H2553   1.405       .  S
C2558      C2559   1.402       .  A
C2558      H2567   1.081       .  S
C2559      C2560   1.414   1_455  A
C2559      S2563   1.801   1_455  S
C2560      C2561   1.404       .  A
C2561      C2562   1.392   1_655  A
C2561      H2568   1.083       .  S
S2563      H2566   1.407       .  S
S2564      H2565   1.405       .  S
C2569      C2570   1.419       .  A
C2569      C2574   1.414       .  A
C2570      C2571   1.405       .  A
C2570      H2579   1.083       .  S
C2571      C2572   1.406       .  A
C2571      S2575   1.802       .  S
C2572      C2573   1.414       .  A
C2573      C2574   1.414       .  A
C2573      H2580   1.083       .  S
C2574      S2576   1.806       .  S
S2575      H2578   1.406       .  S
S2576      H2577   1.407       .  S
C2581      C2582   1.409       .  A
C2581      C2586   1.412       .  A
C2582      C2583   1.397       .  A
C2582      H2591   1.084       .  S
C2583      C2584   1.412       .  A
C2583      S2587   1.805       .  S
C2584      C2585   1.406       .  A
C2585      C2586   1.395       .  A
C2585      H2592   1.084       .  S
C2586      S2588   1.802       .  S
S2587      H2590   1.405       .  S
S2588      H2589   1.407       .  S
C2593      C2594   1.411       .  A
C2593      C2598   1.420       .  A
C2594      C2595   1.411       .  A
C2594      H2603   1.083       .  S
C2595      C2596   1.415       .  A
C2595      S2599   1.808       .  S
C2596      C2597   1.411       .  A
C2597      C2598   1.413       .  A
C2597      H2604   1.084       .  S
C2598      S2600   1.801       .  S
S2599      H2602   1.406       .  S
S2600      H2601   1.406       .  S
C2605      C2606   1.411       .  A
C2605      C2610   1.407       .  A
C2606      C2607   1.408       .  A
C2606      H2615   1.084       .  S
C2607      C2608   1.413       .  A
C2607      S2611   1.800       .  S
C2608      C2609   1.416       .  A
C2609      C2610   1.402       .  A
C2609      H2616   1.083       .  S
C2610      S2612   1.803       .  S
S2611      H2614   1.408       .  S
S2612      H2613   1.406       .  S
C2617      C2618   1.415       .  A
C2617      C2622   1.411       .  A
C2618      C2619   1.411       .  A
C2618      H2627   1.084       .  S
C2619      C2620   1.410   1_556  A
C2619      S2623   1.797   1_556  S
C2620      C2621   1.418       .  A
C2621      C2622   1.408   1_554  A
C2621      H2628   1.084       .  S
C2622      S2624   1.801       .  S
S2623      H2626   1.407       .  S
S2624      H2625   1.407       .  S
C2629      C3542   1.403       .  A
C2629      C2634   1.405       .  A
C2630      C3541   1.406       .  A
C2630      C2631   1.409   1_565  A
C2630      H2639   1.081       .  S
C2631      C2632   1.419       .  A
C2631      S2635   1.806       .  S
C2632      C2633   1.414       .  A
C2633      C3546   1.398       .  A
C2633      H2640   1.083       .  S
C2634      C3545   1.392       .  A
C2634      S2636   1.805       .  S
S2635      H2638   1.406   1_545  S
S2636      H2637   1.407       .  S
C2641      C2642   1.398       .  A
C2641      C2646   1.427       .  A
C2642      C2643   1.405       .  A
C2642      H2651   1.084       .  S
C2643      C2644   1.429       .  A
C2643      S2647   1.804       .  S
C2644      C2645   1.400       .  A
C2645      C2646   1.413       .  A
C2645      H2652   1.083       .  S
C2646      S2648   1.806       .  S
S2647      H2650   1.408       .  S
S2648      H2649   1.407       .  S
C2653      C2654   1.417       .  A
C2653      C2658   1.409       .  A
C2654      C2655   1.411       .  A
C2654      H2663   1.083   1_556  S
C2655      C2656   1.411       .  A
C2655      S2659   1.804       .  S
C2656      C2657   1.418       .  A
C2657      C2658   1.408       .  A
C2657      H2664   1.084       .  S
C2658      S2660   1.798       .  S
S2659      H2662   1.407       .  S
S2660      H2661   1.407       .  S
C2665      C2666   1.411       .  A
C2665      C2670   1.418       .  A
C2666      C2667   1.414   1_554  A
C2666      H2675   1.082       .  S
C2667      C2668   1.419       .  A
C2667      S2671   1.807       .  S
C2668      C2669   1.407       .  A
C2669      C2670   1.402   1_556  A
C2669      H2676   1.083       .  S
C2670      S2672   1.799       .  S
S2671      H2674   1.407       .  S
S2672      H2673   1.406       .  S
C2677      C2678   1.418       .  A
C2677      C2682   1.412       .  A
C2678      C2679   1.416       .  A
C2678      H2687   1.084       .  S
C2679      C2680   1.412       .  A
C2679      S2683   1.799       .  S
C2680      C2681   1.415       .  A
C2681      C2682   1.412       .  A
C2681      H2688   1.082       .  S
C2682      S2684   1.799       .  S
S2683      H2686   1.403       .  S
S2684      H2685   1.407       .  S
C2689      C2690   1.403       .  A
C2689      C2694   1.407       .  A
C2690      C2691   1.402   1_455  A
C2690      H2699   1.083       .  S
C2691      C2692   1.416       .  A
C2691      S2695   1.809       .  S
C2692      C2693   1.405       .  A
C2693      C2694   1.389   1_655  A
C2693      H2700   1.081       .  S
S2695      H2698   1.407       .  S
S2696      H2697   1.405       .  S
C2701      C2778   1.462       .  S
C2701      C2702   1.400   1_565  A
C2701      C2706   1.407   1_565  A
C2702      C2703   1.400       .  A
C2702      H2711   1.084       .  S
C2703      C2704   1.420       .  A
C2703      S2707   1.804       .  S
C2704      C2705   1.407       .  A
C2705      C2706   1.392       .  A
C2705      H2712   1.083       .  S
C2706      S3620   1.805   1_545  S
S2707      H2710   1.408       .  S
S2708      C3618   1.804       .  S
S2708      H2709   1.407       .  S
C2713      C2714   1.403       .  A
C2713      C2718   1.420       .  A
C2714      C2715   1.409       .  A
C2714      H2723   1.084       .  S
C2715      C2716   1.422       .  A
C2715      S2719   1.802       .  S
C2716      C2717   1.398       .  A
C2717      C2718   1.399       .  A
C2717      H2724   1.084       .  S
C2718      S2720   1.804       .  S
S2719      H2722   1.407       .  S
S2720      H2721   1.407       .  S
C2725      C2726   1.403       .  A
C2725      C2730   1.412       .  A
C2726      C2727   1.395       .  A
C2726      H2735   1.084       .  S
C2727      C2728   1.415       .  A
C2727      S2731   1.800       .  S
C2728      C2729   1.403       .  A
C2729      C2730   1.393       .  A
C2729      H2736   1.084       .  S
C2730      S2732   1.801       .  S
S2731      H2734   1.408       .  S
S2732      H2733   1.408       .  S
C2737      C2798   1.518       .  S
N2738      C2739   1.371       .  A
C2739      C3001   1.520       .  S
C2741      C2923   1.523       .  S
C2741      N2742   1.381       .  A
C2743      C2779   1.468       .  S
C2743      N2744   1.354       .  A
C2743      N2748   1.360       .  A
N2744      C2745   1.354       .  A
C2745      C3020   1.474       .  S
C2745      N2746   1.366       .  A
N2746      C2747   1.369       .  A
C2747      C2942   1.479       .  S
C2747      N2748   1.363       .  A
C2749      C3625   1.486   1_554  S
C2749      N2750   1.379       .  A
C2749      N2754   1.348       .  A
N2750      C2751   1.378       .  A
C2751      C2869   1.487       .  S
C2751      N2752   1.357       .  A
N2752      C2753   1.353       .  A
C2753      C3640   1.478       .  S
C2753      N2754   1.341       .  A
Zr2755     O2756   2.440       .  S
Zr2755     O2757   2.474       .  S
Zr2755     O2758   2.470       .  S
Zr2755     O2761   2.444       .  S
Zr2755     O2763   2.382       .  S
Zr2755     O2764   2.396       .  S
Zr2755     O2765   2.416       .  S
Zr2755     O2766   2.420       .  S
O2756      H2812   0.990       .  S
O2756      H2820   0.990       .  S
O2757      C2777   1.291       .  A
O2758      C2779   1.289       .  A
O2759     Zr2769   2.399       .  S
O2759      C2778   1.279       .  A
O2760     Zr2768   2.411       .  S
O2760      C2779   1.280       .  A
O2761      C2778   1.285       .  A
O2762     Zr2770   2.441       .  S
O2762      C2777   1.285       .  A
O2763     Zr2768   2.391       .  S
O2763     Zr2770   2.375       .  S
O2764     Zr2769   2.397       .  S
O2764     Zr2770   2.369       .  S
O2764      H2799   0.966       .  S
O2765     Zr2768   2.409       .  S
O2765     Zr2785   2.400       .  S
O2765      H2802   0.964       .  S
O2766     Zr2769   2.391       .  S
O2766     Zr2785   2.387       .  S
Zr2767     O2792   2.443       .  S
Zr2767     O2786   2.544       .  S
Zr2767     O2794   2.548       .  S
Zr2767     O2782   2.424       .  S
Zr2767     O2773   2.421       .  S
Zr2767     O2774   2.441       .  S
Zr2767     O2775   2.362       .  S
Zr2767     O2776   2.391       .  S
Zr2768     O2787   2.437       .  S
Zr2768     O2780   2.427       .  S
Zr2768     O2781   2.430       .  S
Zr2768     O2774   2.401       .  S
Zr2768     O2775   2.361       .  S
Zr2769     O2771   2.424   1_565  S
Zr2769     O2793   2.438       .  S
Zr2769     O2795   2.416       .  S
Zr2769     O2773   2.377       .  S
Zr2769     O2776   2.410       .  S
Zr2770     O2796   2.437       .  S
Zr2770     O2797   2.430       .  S
Zr2770     O2772   2.437       .  S
Zr2770     O2773   2.414       .  S
Zr2770     O2774   2.392       .  S
O2772      H2803   0.990       .  S
O2772      H2817   0.989       .  S
O2774      H2800   0.964       .  S
O2775     Zr2785   2.355       .  S
O2776     Zr2785   2.395       .  S
O2776      H2801   0.967       .  S
C2777      C3577   1.516       .  S
O2780      H2816   0.990       .  S
O2781      C2783   1.284       .  A
O2782      C2783   1.285       .  A
O2784     Zr2785   2.437       .  S
O2784      H2813   0.991   1_565  S
Zr2785     O2788   2.437       .  S
Zr2785     O2789   2.428       .  S
Zr2785     O2790   2.430       .  S
O2786      C2791   1.306       .  A
O2787      H2804   0.990       .  S
O2787      H2819   0.990       .  S
O2788      H2805   0.990       .  S
O2789      H2809   0.990   1_565  S
O2789      H2818   0.989       .  S
O2790      C2791   1.283       .  A
C2791      C3592   1.513       .  S
O2792      H2811   0.990       .  S
O2793      H2807   0.990       .  S
O2793      H2814   0.990       .  S
O2794      C2798   1.304       .  A
O2795      C2798   1.278       .  A
O2796      H2806   0.990       .  S
C2821      C3565   1.502   1_554  S
C2821      N2822   1.379       .  A
C2821      N2826   1.355       .  A
N2822      C2823   1.377       .  A
C2823      C2861   1.483       .  S
C2823      N2824   1.354       .  A
N2824      C2825   1.350       .  A
C2825      C3616   1.484       .  S
C2825      N2826   1.350       .  A
C2827      C3553   1.512       .  S
C2827      N2828   1.379       .  A
C2827      N2832   1.351       .  A
N2828      C2829   1.381       .  A
C2829      C2856   1.497       .  S
C2829      N2830   1.355       .  A
N2830      C2831   1.353       .  A
C2831      C3604   1.483       .  S
C2831      N2832   1.353       .  A
Zr2833     O2834   2.438       .  S
Zr2833     O2835   2.460       .  S
Zr2833     O2836   2.462       .  S
Zr2833     O2839   2.437       .  S
Zr2833     O2841   2.372       .  S
Zr2833     O2842   2.406       .  S
Zr2833     O2843   2.431       .  S
Zr2833     O2844   2.409       .  S
O2834      H2890   0.990       .  S
O2834      H2898   0.990       .  S
O2835      C2855   1.287       .  A
O2836      C2857   1.286       .  A
O2837     Zr2847   2.502       .  S
O2837      C2856   1.301       .  A
O2838     Zr2846   2.467       .  S
O2838      C2857   1.294       .  A
O2839      C2856   1.284       .  A
O2840     Zr2848   2.426       .  S
O2840      C2855   1.286       .  A
O2841     Zr2846   2.369       .  S
O2841     Zr2848   2.347       .  S
O2842     Zr2847   2.388       .  S
O2842     Zr2848   2.392       .  S
O2842      H2877   0.966       .  S
O2843     Zr2846   2.387       .  S
O2843     Zr2863   2.433       .  S
O2843      H2880   0.966       .  S
O2844     Zr2847   2.378       .  S
O2844     Zr2863   2.395       .  S
Zr2845     O2870   2.443       .  S
Zr2845     O2864   2.462       .  S
Zr2845     O2872   2.410       .  S
Zr2845     O2860   2.466       .  S
Zr2845     O2851   2.419       .  S
Zr2845     O2852   2.406       .  S
Zr2845     O2853   2.382       .  S
Zr2845     O2854   2.396       .  S
Zr2846     O2865   2.437       .  S
Zr2846     O2858   2.422       .  S
Zr2846     O2859   2.449       .  S
Zr2846     O2852   2.398       .  S
Zr2846     O2853   2.397       .  S
Zr2847     O2849   2.436       .  S
Zr2847     O2871   2.438       .  S
Zr2847     O2873   2.492       .  S
Zr2847     O2851   2.395       .  S
Zr2847     O2854   2.374       .  S
Zr2848     O2874   2.436       .  S
Zr2848     O2875   2.435       .  S
Zr2848     O2850   2.439       .  S
Zr2848     O2851   2.379       .  S
Zr2848     O2852   2.409       .  S
O2849      H2886   0.990       .  S
O2850      H2881   0.990       .  S
O2850      H2895   0.990       .  S
O2852      H2878   0.966       .  S
O2853     Zr2863   2.373       .  S
O2854     Zr2863   2.378       .  S
O2854      H2879   0.964       .  S
C2855      C2969   1.483       .  S
C2857      C2973   1.491       .  S
O2858      H2894   0.991       .  S
O2859      C2861   1.287       .  A
O2860      C2861   1.287       .  A
O2862     Zr2863   2.428       .  S
O2862      H2891   0.990       .  S
Zr2863     O2866   2.437       .  S
Zr2863     O2867   2.438       .  S
Zr2863     O2868   2.473       .  S
O2864      C2869   1.287       .  A
O2865      H2882   0.990       .  S
O2865      H2897   0.989       .  S
O2866      H2883   0.990       .  S
O2867      H2887   0.990       .  S
O2867      H2896   0.990       .  S
O2868      C2869   1.293       .  A
O2870      H2889   0.990       .  S
O2870      H2893   0.990       .  S
O2871      H2885   0.990       .  S
O2871      H2892   0.990       .  S
O2872      C2876   1.279       .  A
O2873      C2876   1.299       .  A
O2874      H2884   0.989       .  S
O2875      H2888   0.990       .  S
C2876      C3047   1.481       .  S
Zr2899     O2900   2.436       .  S
Zr2899     O2901   2.419       .  S
Zr2899     O2902   2.484       .  S
Zr2899     O2905   2.527       .  S
Zr2899     O2907   2.387       .  S
Zr2899     O2908   2.392       .  S
Zr2899     O2909   2.421       .  S
Zr2899     O2910   2.401       .  S
O2900      H2956   0.990       .  S
O2900      H2964   0.990       .  S
O2901      C2921   1.284       .  A
O2902      C2923   1.294       .  A
O2903     Zr2913   2.365       .  S
O2903      C2922   1.273       .  A
O2904     Zr2912   2.509       .  S
O2904      C2923   1.299       .  A
O2905      C2922   1.304       .  A
O2906     Zr2914   2.420       .  S
O2906      C2921   1.282       .  A
O2907     Zr2912   2.385       .  S
O2907     Zr2914   2.363       .  S
O2908     Zr2913   2.402       .  S
O2908     Zr2914   2.375       .  S
O2908      H2943   0.965       .  S
O2909     Zr2912   2.418       .  S
O2909     Zr2929   2.404       .  S
O2909      H2946   0.966       .  S
O2910     Zr2913   2.400       .  S
O2910     Zr2929   2.397       .  S
Zr2911     O2936   2.440       .  S
Zr2911     O2930   2.433       .  S
Zr2911     O2938   2.464       .  S
Zr2911     O2926   2.364       .  S
Zr2911     O2917   2.385       .  S
Zr2911     O2918   2.418       .  S
Zr2911     O2919   2.395       .  S
Zr2911     O2920   2.365       .  S
Zr2912     O2931   2.435       .  S
Zr2912     O2924   2.433       .  S
Zr2912     O2925   2.520       .  S
Zr2912     O2918   2.402       .  S
Zr2912     O2919   2.397       .  S
Zr2913     O2915   2.436       .  S
Zr2913     O2937   2.438       .  S
Zr2913     O2939   2.435       .  S
Zr2913     O2917   2.368       .  S
Zr2913     O2920   2.382       .  S
Zr2914     O2940   2.435       .  S
Zr2914     O2941   2.428       .  S
Zr2914     O2916   2.439       .  S
Zr2914     O2917   2.396       .  S
Zr2914     O2918   2.374       .  S
O2915      H2952   0.990       .  S
O2916      H2947   0.990       .  S
O2916      H2961   0.990       .  S
O2918      H2944   0.965       .  S
O2919     Zr2929   2.371       .  S
O2920     Zr2929   2.384       .  S
O2920      H2945   0.967       .  S
C2921      C3637   1.480       .  S
C2922      C3532   1.501       .  S
O2924      H2960   0.990       .  S
O2925      C2927   1.303       .  A
O2926      C2927   1.274       .  A
C2927      C3520   1.493       .  S
O2928     Zr2929   2.439       .  S
Zr2929     O2932   2.436   1_565  S
Zr2929     O2933   2.439       .  S
Zr2929     O2934   2.439       .  S
O2930      C2935   1.283       .  A
O2931      H2948   0.990       .  S
O2931      H2963   0.990   1_565  S
O2933      H2962   0.990       .  S
O2934      C2935   1.286       .  A
C2935      C3541   1.484       .  S
O2936      H2955   0.990       .  S
O2936      H2959   0.990       .  S
O2937      H2951   0.990       .  S
O2937      H2958   0.990       .  S
O2938      C2942   1.288       .  A
O2939      C2942   1.282       .  A
O2940      H2950   0.989       .  S
O2941      H2954   0.990       .  S
C2965      C3505   1.488       .  S
C2965      N2966   1.363       .  A
C2965      N2970   1.375       .  A
N2966      C2967   1.354       .  A
C2967      C3544   1.494       .  S
C2967      N2968   1.349       .  A
N2968      C2969   1.351       .  A
C2969      N2970   1.367       .  A
C2971      C3481   1.505       .  S
C2971      N2972   1.381       .  A
C2971      N2976   1.358       .  A
N2972      C2973   1.375       .  A
C2973      N2974   1.351       .  A
N2974      C2975   1.349       .  A
C2975      C3493   1.481       .  S
C2975      N2976   1.348       .  A
Zr2977     O2978   2.439       .  S
Zr2977     O2979   2.408       .  S
Zr2977     O2980   2.455       .  S
Zr2977     O2983   2.513       .  S
Zr2977     O2985   2.392       .  S
Zr2977     O2986   2.386       .  S
Zr2977     O2987   2.413       .  S
Zr2977     O2988   2.384       .  S
O2978      H3034   0.990       .  S
O2978      H3042   0.990       .  S
O2979      C2999   1.284       .  A
O2980      C3001   1.288       .  A
O2981     Zr2991   2.384       .  S
O2981      C3000   1.273       .  A
O2982     Zr2990   2.535       .  S
O2982      C3001   1.306       .  A
O2983      C3000   1.301       .  A
O2984     Zr2992   2.432       .  S
O2984      C2999   1.281       .  A
O2985     Zr2990   2.387       .  S
O2985     Zr2992   2.361       .  S
O2986     Zr2991   2.402       .  S
O2986     Zr2992   2.375       .  S
O2986      H3021   0.965       .  S
O2987     Zr2990   2.428       .  S
O2987     Zr3007   2.399       .  S
O2987      H3024   0.966       .  S
O2988     Zr2991   2.408       .  S
O2988     Zr3007   2.376       .  S
Zr2989     O3014   2.439       .  S
Zr2989     O3008   2.442       .  S
Zr2989     O3016   2.440       .  S
Zr2989     O3004   2.349       .  S
Zr2989     O2995   2.390       .  S
Zr2989     O2996   2.420       .  S
Zr2989     O2997   2.385       .  S
Zr2989     O2998   2.354       .  S
Zr2990     O3009   2.434       .  S
Zr2990     O3002   2.436       .  S
Zr2990     O3003   2.548       .  S
Zr2990     O2996   2.407       .  S
Zr2990     O2997   2.395       .  S
Zr2991     O2993   2.435       .  S
Zr2991     O3015   2.435       .  S
Zr2991     O3017   2.441       .  S
Zr2991     O2995   2.374       .  S
Zr2991     O2998   2.383       .  S
Zr2992     O3018   2.433       .  S
Zr2992     O3019   2.437       .  S
Zr2992     O2994   2.438       .  S
Zr2992     O2995   2.409       .  S
Zr2992     O2996   2.392       .  S
O2993      H3030   0.990       .  S
O2994      H3025   0.991       .  S
O2994      H3039   0.990       .  S
O2996      H3022   0.965       .  S
O2997     Zr3007   2.380       .  S
O2998     Zr3007   2.382       .  S
O2998      H3023   0.965       .  S
C2999      C3496   1.481       .  S
C3000      C3445   1.505       .  S
O3002      H3038   0.990       .  S
O3003      C3005   1.308       .  A
O3004      C3005   1.269       .  A
C3005      C3460   1.493       .  S
O3006     Zr3007   2.438       .  S
Zr3007     O3011   2.438       .  S
Zr3007     O3012   2.383       .  S
O3008      C3013   1.285       .  A
O3009      H3026   0.990       .  S
O3009      H3041   0.990       .  S
O3010      H3027   0.990       .  S
O3011      H3040   0.990       .  S
O3012      C3013   1.275       .  A
C3013      C3469   1.474       .  S
O3014      H3033   0.991       .  S
O3014      H3037   0.990       .  S
O3015      H3029   0.990       .  S
O3015      H3036   0.990       .  S
O3016      C3020   1.284       .  A
O3017      C3020   1.283       .  A
O3018      H3028   0.990       .  S
O3019      H3032   0.990       .  S
C3043      C3436   1.507       .  S
C3043      N3044   1.356       .  A
C3043      N3048   1.371       .  A
N3044      C3045   1.353       .  A
C3045      C3472   1.484       .  S
C3045      N3046   1.355       .  A
N3046      C3047   1.354       .  A
C3047      N3048   1.374       .  A
C3049      C3161   1.526       .  S
C3049      N3050   1.371       .  A
C3051      C3078   1.516       .  S
C3053      C3294   1.516       .  S
C3053      N3054   1.376   1_565  A
Zr3055     O3056   2.436       .  S
Zr3055     O3057   2.429       .  S
Zr3055     O3058   2.514       .  S
Zr3055     O3061   2.457       .  S
Zr3055     O3063   2.388       .  S
Zr3055     O3064   2.397       .  S
Zr3055     O3065   2.403       .  S
Zr3055     O3066   2.412       .  S
O3056      H3112   0.990       .  S
O3056      H3120   0.990       .  S
O3057      C3077   1.286       .  A
O3058      C3079   1.301       .  A
O3059     Zr3069   2.527       .  S
O3059      C3078   1.303       .  A
O3060     Zr3068   2.385       .  S
O3060      C3079   1.278       .  A
O3061      C3078   1.290       .  A
O3062     Zr3070   2.408       .  S
O3062      C3077   1.279       .  A
O3063     Zr3068   2.399       .  S
O3063     Zr3070   2.369       .  S
O3064     Zr3069   2.374       .  S
O3064     Zr3070   2.373       .  S
O3064      H3099   0.965       .  S
O3065     Zr3068   2.406       .  S
O3065     Zr3085   2.388       .  S
O3065      H3102   0.966       .  S
O3066     Zr3069   2.411       .  S
O3066     Zr3085   2.398       .  S
Zr3067     O3092   2.439       .  S
Zr3067     O3086   2.425       .  S
Zr3067     O3094   2.372       .  S
Zr3067     O3082   2.457       .  S
Zr3067     O3073   2.408       .  S
Zr3067     O3074   2.386       .  S
Zr3067     O3075   2.364       .  S
Zr3067     O3076   2.398       .  S
Zr3068     O3087   2.437       .  S
Zr3068     O3080   2.435       .  S
Zr3068     O3081   2.441       .  S
Zr3068     O3074   2.377       .  S
Zr3068     O3075   2.384       .  S
Zr3069     O3071   2.434       .  S
Zr3069     O3093   2.438       .  S
Zr3069     O3095   2.517       .  S
Zr3069     O3073   2.398       .  S
Zr3069     O3076   2.385       .  S
Zr3070     O3096   2.435       .  S
Zr3070     O3097   2.436       .  S
Zr3070     O3072   2.435       .  S
Zr3070     O3073   2.386       .  S
Zr3070     O3074   2.395       .  S
O3071      H3108   0.990       .  S
O3072      H3103   0.988       .  S
O3072      H3117   0.989       .  S
O3074      H3100   0.966       .  S
O3075     Zr3085   2.384       .  S
O3076     Zr3085   2.380       .  S
O3076      H3101   0.965       .  S
C3077      C3424   1.475       .  S
C3079      C3568   1.508       .  S
O3080      H3116   0.990       .  S
O3081      C3083   1.283       .  A
O3082      C3083   1.287       .  A
C3083      C3359   1.479       .  S
O3084     Zr3085   2.438       .  S
O3084      H3113   0.990       .  S
Zr3085     O3088   2.435       .  S
Zr3085     O3089   2.438       .  S
Zr3085     O3090   2.428       .  S
O3086      C3091   1.283       .  A
O3087      H3104   0.990       .  S
O3087      H3119   0.990       .  S
O3088      H3105   0.990       .  S
O3089      H3118   0.990       .  S
O3090      C3091   1.285       .  A
C3091      C3412   1.477       .  S
O3092      H3111   0.990       .  S
O3092      H3115   0.990       .  S
O3093      H3107   0.990       .  S
O3093      H3114   0.990       .  S
O3094      C3098   1.274       .  A
O3095      C3098   1.302       .  A
O3096      H3106   0.990       .  S
O3097      H3110   0.990       .  S
C3098      C3484   1.490       .  S
C3121      C3457   1.492       .  S
C3121      N3122   1.380       .  A
C3121      N3126   1.348       .  A
N3122      C3123   1.380       .  A
C3123      C3241   1.496       .  S
C3123      N3124   1.359       .  A
N3124      C3125   1.357       .  A
C3125      C3421   1.483       .  S
C3125      N3126   1.346       .  A
C3127      C3448   1.501       .  S
C3127      N3128   1.352       .  A
C3127      N3132   1.376       .  A
N3128      C3129   1.347       .  A
C3129      C3400   1.455       .  S
C3129      N3130   1.350       .  A
N3130      C3131   1.353       .  A
C3131      C3229   1.488       .  S
C3131      N3132   1.379       .  A
Zr3133     O3134   2.441       .  S
Zr3133     O3135   2.412       .  S
Zr3133     O3136   2.389       .  S
Zr3133     O3139   2.420       .  S
Zr3133     O3141   2.391       .  S
Zr3133     O3142   2.376       .  S
Zr3133     O3143   2.403       .  S
Zr3133     O3144   2.382       .  S
O3134      H3190   0.990       .  S
O3134      H3198   0.990       .  S
O3135      C3155   1.278       .  A
O3136      C3157   1.274       .  A
O3137     Zr3147   2.435       .  S
O3137      C3156   1.284       .  A
O3138     Zr3146   2.412       .  S
O3138      C3157   1.280       .  A
O3139      C3156   1.281       .  A
O3140     Zr3148   2.475       .  S
O3140      C3155   1.289       .  A
O3141     Zr3146   2.407       .  S
O3141     Zr3148   2.365       .  S
O3142     Zr3147   2.383       .  S
O3142     Zr3148   2.366       .  S
O3142      H3177   0.966       .  S
O3143     Zr3146   2.399       .  S
O3143     Zr3163   2.376       .  S
O3143      H3180   0.953       .  S
O3144     Zr3147   2.385       .  S
O3144     Zr3163   2.388       .  S
Zr3145     O3170   2.442       .  S
Zr3145     O3164   2.526       .  S
Zr3145     O3172   2.422       .  S
Zr3145     O3160   2.554       .  S
Zr3145     O3151   2.441       .  S
Zr3145     O3152   2.429       .  S
Zr3145     O3153   2.380       .  S
Zr3145     O3154   2.395       .  S
Zr3146     O3165   2.434       .  S
Zr3146     O3158   2.435       .  S
Zr3146     O3159   2.445       .  S
Zr3146     O3152   2.393       .  S
Zr3146     O3153   2.406       .  S
Zr3147     O3149   2.436       .  S
Zr3147     O3171   2.440       .  S
Zr3147     O3173   2.417       .  S
Zr3147     O3151   2.403       .  S
Zr3147     O3154   2.380       .  S
Zr3148     O3174   2.429       .  S
Zr3148     O3175   2.440       .  S
Zr3148     O3150   2.440       .  S
Zr3148     O3151   2.405       .  S
Zr3148     O3152   2.415       .  S
O3149      H3186   0.990       .  S
O3150      H3181   0.990       .  S
O3150      H3195   0.990       .  S
O3152      H3178   0.964       .  S
O3153     Zr3163   2.398       .  S
O3154     Zr3163   2.380       .  S
O3154      H3179   0.964       .  S
C3155      C3508   1.492       .  S
C3156      C3355   1.463       .  S
C3157      C3397   1.437       .  S
O3158      H3194   0.991       .  S
O3159      C3161   1.285       .  A
O3160      C3161   1.305       .  A
O3162     Zr3163   2.433       .  S
O3162      H3191   0.990       .  S
Zr3163     O3166   2.435       .  S
Zr3163     O3167   2.439       .  S
Zr3163     O3168   2.391       .  S
O3164      C3169   1.301       .  A
O3165      H3182   0.989       .  S
O3165      H3197   0.989       .  S
O3166      H3183   0.990       .  S
O3167      H3187   0.990       .  S
O3167      H3196   0.990       .  S
O3168      C3169   1.276       .  A
C3169      C3433   1.492       .  S
O3170      H3189   0.990       .  S
O3170      H3193   0.990       .  S
O3171      H3185   0.990       .  S
O3171      H3192   0.990       .  S
O3172      C3176   1.284       .  A
O3173      C3176   1.281       .  A
O3174      H3184   0.990       .  S
O3175      H3188   0.990       .  S
C3176      C3385   1.457       .  S
C3199      C3580   1.515       .  S
C3199      N3200   1.363       .  A
C3199      N3204   1.364       .  A
N3200      C3201   1.363       .  A
C3201      C3376   1.494       .  S
C3201      N3202   1.358       .  A
N3202      C3203   1.349       .  A
C3203      C3233   1.478       .  S
C3203      N3204   1.369       .  A
Zr3205     O3206   2.439       .  S
Zr3205     O3207   2.489       .  S
Zr3205     O3208   2.419       .  S
Zr3205     O3211   2.433       .  S
Zr3205     O3213   2.390       .  S
Zr3205     O3214   2.395       .  S
Zr3205     O3215   2.435       .  S
Zr3205     O3216   2.428       .  S
O3206      H3262   0.991       .  S
O3206      H3270   0.990       .  S
O3207      C3227   1.291       .  A
O3208      C3229   1.279       .  A
O3209     Zr3219   2.467       .  S
O3209      C3228   1.294       .  A
O3210     Zr3218   2.507       .  S
O3210      C3229   1.301       .  A
O3211      C3228   1.280       .  A
O3212     Zr3220   2.444       .  S
O3212      C3227   1.288       .  A
O3213     Zr3218   2.395       .  S
O3213     Zr3220   2.377       .  S
O3214     Zr3219   2.410       .  S
O3214     Zr3220   2.362       .  S
O3214      H3249   0.965       .  S
O3215     Zr3218   2.412       .  S
O3215     Zr3235   2.403       .  S
O3215      H3252   0.962       .  S
O3216     Zr3219   2.380       .  S
O3216     Zr3235   2.428       .  S
Zr3217     O3242   2.441       .  S
Zr3217     O3236   2.464       .  S
Zr3217     O3244   2.443       .  S
Zr3217     O3232   2.373       .  S
Zr3217     O3223   2.404       .  S
Zr3217     O3224   2.426       .  S
Zr3217     O3225   2.377       .  S
Zr3217     O3226   2.372       .  S
Zr3218     O3237   2.434       .  S
Zr3218     O3230   2.435       .  S
Zr3218     O3231   2.514       .  S
Zr3218     O3224   2.404       .  S
Zr3218     O3225   2.378       .  S
Zr3219     O3221   2.436       .  S
Zr3219     O3243   2.443       .  S
Zr3219     O3245   2.463       .  S
Zr3219     O3223   2.399       .  S
Zr3219     O3226   2.386       .  S
Zr3220     O3246   2.437       .  S
Zr3220     O3247   2.436       .  S
Zr3220     O3222   2.436       .  S
Zr3220     O3223   2.413       .  S
Zr3220     O3224   2.381       .  S
O3221      H3258   0.990       .  S
O3222      H3253   0.990       .  S
O3222      H3267   0.990       .  S
O3224      H3250   0.966       .  S
O3225     Zr3235   2.340       .  S
O3226     Zr3235   2.369       .  S
O3226      H3251   0.966       .  S
C3227      C3353   1.502       .  S
C3228      C3339   1.477       .  S
O3230      H3266   0.990       .  S
O3231      C3233   1.304       .  A
O3232      C3233   1.274       .  A
O3234     Zr3235   2.436       .  S
O3234      H3263   0.990       .  S
Zr3235     O3238   2.436       .  S
Zr3235     O3239   2.444       .  S
Zr3235     O3240   2.484       .  S
O3236      C3241   1.286       .  A
O3237      H3254   0.990       .  S
O3237      H3269   0.989       .  S
O3238      H3255   0.990       .  S
O3239      H3259   0.990       .  S
O3239      H3268   0.990       .  S
O3240      C3241   1.295       .  A
O3242      H3261   0.990       .  S
O3242      H3265   0.990       .  S
O3243      H3257   0.990       .  S
O3243      H3264   0.988       .  S
O3244      C3248   1.284       .  A
O3245      C3248   1.290       .  A
O3246      H3256   0.990       .  S
O3247      H3260   0.990       .  S
C3248      C3345   1.478       .  S
Zr3271     O3272   2.437       .  S
Zr3271     O3273   2.397       .  S
Zr3271     O3274   2.528       .  S
Zr3271     O3277   2.499       .  S
Zr3271     O3279   2.396       .  S
Zr3271     O3280   2.397       .  S
Zr3271     O3281   2.402       .  S
Zr3271     O3282   2.408       .  S
O3272      H3328   0.990       .  S
O3272      H3336   0.990       .  S
O3273      C3293   1.277       .  A
O3274      C3295   1.304       .  A
O3275     Zr3285   2.489       .  S
O3275      C3294   1.296       .  A
O3276     Zr3284   2.384       .  S
O3276      C3295   1.276       .  A
O3277      C3294   1.299       .  A
O3278     Zr3286   2.438       .  S
O3278      C3293   1.286       .  A
O3279     Zr3284   2.401       .  S
O3279     Zr3286   2.378       .  S
O3280     Zr3285   2.381       .  S
O3280     Zr3286   2.360       .  S
O3280      H3315   0.964       .  S
O3281     Zr3284   2.413       .  S
O3281     Zr3301   2.380       .  S
O3281      H3318   0.965       .  S
O3282     Zr3285   2.415       .  S
O3282     Zr3301   2.391       .  S
Zr3283     O3308   2.440       .  S
Zr3283     O3302   2.466       .  S
Zr3283     O3310   2.376       .  S
Zr3283     O3298   2.453       .  S
Zr3283     O3289   2.417       .  S
Zr3283     O3290   2.400       .  S
Zr3283     O3291   2.362       .  S
Zr3283     O3292   2.393       .  S
Zr3284     O3303   2.438       .  S
Zr3284     O3296   2.433       .  S
Zr3284     O3297   2.446       .  S
Zr3284     O3290   2.374       .  S
Zr3284     O3291   2.383       .  S
Zr3285     O3287   2.433       .  S
Zr3285     O3309   2.440       .  S
Zr3285     O3311   2.499       .  S
Zr3285     O3289   2.395       .  S
Zr3285     O3292   2.392       .  S
Zr3286     O3312   2.437       .  S
Zr3286     O3313   2.436       .  S
Zr3286     O3288   2.433       .  S
Zr3286     O3289   2.396       .  S
Zr3286     O3290   2.408       .  S
O3287      H3324   0.990       .  S
O3288      H3319   0.990       .  S
O3288      H3333   0.988       .  S
O3290      H3316   0.966       .  S
O3291     Zr3301   2.385       .  S
O3292     Zr3301   2.377       .  S
O3292      H3317   0.965       .  S
C3293      C3361   1.479       .  S
C3295      C3556   1.506       .  S
O3296      H3332   0.990       .  S
O3297      C3299   1.284       .  A
O3298      C3299   1.287       .  A
C3299      C3357   1.480       .  S
O3300     Zr3301   2.434       .  S
O3300      H3329   0.990       .  S
Zr3301     O3304   2.434       .  S
Zr3301     O3305   2.439       .  S
Zr3301     O3306   2.399       .  S
O3302      C3307   1.290       .  A
O3303      H3320   0.990       .  S
O3303      H3335   0.990       .  S
O3304      H3321   0.990       .  S
O3305      H3325   0.990       .  S
O3305      H3334   0.990       .  S
O3306      C3307   1.279       .  A
C3307      C3373   1.484       .  S
O3308      H3327   0.990       .  S
O3308      H3331   0.990       .  S
O3309      H3323   0.990       .  S
O3309      H3330   0.990       .  S
O3310      C3314   1.274       .  A
O3311      C3314   1.298       .  A
O3312      H3322   0.990       .  S
O3313      H3326   0.990       .  S
C3314      C3628   1.477       .  S
C3337      C3517   1.478       .  S
C3337      N3338   1.376       .  A
C3337      N3342   1.355       .  A
N3338      C3339   1.371       .  A
C3339      N3340   1.344       .  A
N3340      C3341   1.347       .  A
C3341      C3364   1.471       .  S
C3341      N3342   1.351       .  A
C3343      C3529   1.504       .  S
C3343      N3344   1.376       .  A
C3343      N3348   1.355       .  A
N3344      C3345   1.375       .  A
C3345      N3346   1.353       .  A
N3346      C3347   1.352       .  A
C3347      C3388   1.484       .  S
C3347      N3348   1.348       .  A
C3349      C3589   1.518       .  S
C3349      N3350   1.360       .  A
C3349      N3354   1.385       .  A
N3350      C3351   1.354       .  A
C3351      C3409   1.495       .  S
C3351      N3352   1.352       .  A
N3352      C3353   1.355       .  A
C3353      N3354   1.381       .  A
C3355      N3356   1.356       .  A
C3355      N3360   1.355       .  A
N3356      C3357   1.357       .  A
C3357      N3358   1.370       .  A
N3358      C3359   1.370       .  A
C3359      N3360   1.357       .  A
C3361      C3362   1.407       .  A
C3361      C3366   1.420       .  A
C3362      C3363   1.394       .  A
C3362      H3371   1.083       .  S
C3363      C3364   1.409       .  A
C3363      S3367   1.804       .  S
C3364      C3365   1.399       .  A
C3365      C3366   1.400       .  A
C3365      H3372   1.083       .  S
C3366      S3368   1.808       .  S
S3367      H3370   1.408       .  S
S3368      H3369   1.407       .  S
C3373      C3374   1.402       .  A
C3373      C3378   1.414       .  A
C3374      H3383   1.084       .  S
C3375      C3376   1.420       .  A
C3375      S3379   1.807       .  S
C3377      C3378   1.397       .  A
C3377      H3384   1.083   1_655  S
C3378      S3380   1.804       .  S
S3379      H3382   1.406       .  S
S3380      H3381   1.408       .  S
C3385      C3386   1.400       .  A
C3386      H3395   1.083       .  S
C3387      C3388   1.417       .  A
C3387      S3391   1.809       .  S
C3388      C3389   1.408       .  A
C3389      C3390   1.397       .  A
C3389      H3396   1.083       .  S
C3390      S3392   1.804   1_565  S
S3391      H3394   1.407   1_565  S
C3397      C3398   1.396       .  A
C3398      H3407   1.084       .  S
C3399      C3400   1.406       .  A
C3399      S3403   1.807       .  S
C3400      C3401   1.398       .  A
C3401      C3402   1.403       .  A
C3401      H3408   1.083       .  S
C3402      S3404   1.804       .  S
S3403      H3406   1.408       .  S
C3409      C3410   1.411       .  A
C3409      C3414   1.418   1_565  A
C3410      H3419   1.082       .  S
C3411      C3412   1.409       .  A
C3411      S3415   1.808       .  S
C3412      C3413   1.407       .  A
C3413      H3420   1.084       .  S
C3414      S3416   1.803       .  S
S3415      H3418   1.407       .  S
S3416      H3417   1.408   1_545  S
C3421      C3422   1.402       .  A
C3421      C3426   1.411       .  A
C3422      C3423   1.401       .  A
C3422      H3431   1.082       .  S
C3423      C3424   1.418       .  A
C3423      S3427   1.806       .  S
C3424      C3425   1.406       .  A
C3425      C3426   1.395       .  A
C3425      H3432   1.083       .  S
C3426      S3428   1.801       .  S
S3427      H3430   1.407       .  S
S3428      H3429   1.408       .  S
C3433      C3434   1.412       .  A
C3433      C3438   1.410       .  A
C3434      C3435   1.411       .  A
C3434      H3443   1.084       .  S
C3435      C3436   1.415   1_556  A
C3435      S3439   1.799       .  S
C3436      C3437   1.414       .  A
C3437      C3438   1.407   1_554  A
C3437      H3444   1.084       .  S
C3438      S3440   1.799       .  S
S3439      H3442   1.407   1_556  S
S3440      H3441   1.404       .  S
C3445      C3446   1.421       .  A
C3445      C3450   1.407       .  A
C3446      C3447   1.408       .  A
C3446      H3455   1.083       .  S
C3447      C3448   1.410       .  A
C3447      S3451   1.800       .  S
C3448      C3449   1.415       .  A
C3449      C3450   1.402       .  A
C3449      H3456   1.080       .  S
C3450      S3452   1.800       .  S
S3451      H3454   1.406       .  S
S3452      H3453   1.408       .  S
C3457      C3458   1.411       .  A
C3457      C3462   1.413       .  A
C3458      C3459   1.421       .  A
C3458      H3467   1.083       .  S
C3459      C3460   1.413   1_556  A
C3459      S3463   1.800   1_556  S
C3460      C3461   1.407       .  A
C3461      C3462   1.404   1_554  A
C3461      H3468   1.081       .  S
C3462      S3464   1.806       .  S
S3463      H3466   1.405   1_554  S
S3464      H3465   1.407       .  S
C3470      C3471   1.399       .  A
C3470      H3479   1.079       .  S
C3471      C3472   1.417   1_455  A
C3471      S3475   1.802   1_455  S
C3472      C3473   1.405       .  A
C3473      C3474   1.393   1_655  A
C3473      H3480   1.083       .  S
S3475      H3478   1.408       .  S
S3476      H3477   1.404       .  S
C3481      C3482   1.416       .  A
C3481      C3486   1.414       .  A
C3482      C3483   1.406       .  A
C3482      H3491   1.084       .  S
C3483      C3484   1.408       .  A
C3483      S3487   1.801       .  S
C3484      C3485   1.413       .  A
C3485      C3486   1.408       .  A
C3485      H3492   1.084       .  S
C3486      S3488   1.798       .  S
S3487      H3490   1.405       .  S
S3488      H3489   1.407       .  S
C3493      C3494   1.408       .  A
C3493      C3498   1.414       .  A
C3494      C3495   1.397       .  A
C3494      H3503   1.084       .  S
C3495      C3496   1.413       .  A
C3495      S3499   1.805       .  S
C3496      C3497   1.406       .  A
C3497      C3498   1.395       .  A
C3497      H3504   1.084       .  S
C3498      S3500   1.802       .  S
S3499      H3502   1.405       .  S
S3500      H3501   1.405       .  S
C3505      C3506   1.407       .  A
C3505      C3510   1.413       .  A
C3506      C3507   1.406       .  A
C3506      H3515   1.083       .  S
C3507      C3508   1.412       .  A
C3507      S3511   1.808       .  S
C3508      C3509   1.409       .  A
C3509      C3510   1.406       .  A
C3509      H3516   1.084       .  S
C3510      S3512   1.801       .  S
S3511      H3514   1.406       .  S
S3512      H3513   1.408       .  S
C3517      C3518   1.411       .  A
C3517      C3522   1.405       .  A
C3518      C3519   1.408       .  A
C3518      H3527   1.084       .  S
C3519      C3520   1.412       .  A
C3519      S3523   1.799       .  S
C3520      C3521   1.415       .  A
C3521      C3522   1.398       .  A
C3521      H3528   1.083       .  S
C3522      S3524   1.803       .  S
S3523      H3526   1.407       .  S
S3524      H3525   1.404       .  S
C3529      C3530   1.415       .  A
C3529      C3534   1.411       .  A
C3530      C3531   1.405   1_556  A
C3530      H3539   1.083       .  S
C3531      C3532   1.409       .  A
C3531      S3535   1.798       .  S
C3532      C3533   1.419       .  A
C3533      C3534   1.410   1_554  A
C3533      H3540   1.084       .  S
C3534      S3536   1.800       .  S
S3535      H3538   1.406       .  S
S3536      H3537   1.407       .  S
C3541      C3546   1.408   1_565  A
C3542      C3543   1.406       .  A
C3542      H3551   1.082       .  S
C3543      C3544   1.420       .  A
C3543      S3547   1.808       .  S
C3544      C3545   1.412       .  A
C3545      H3552   1.083       .  S
C3546      S3548   1.806       .  S
S3547      H3550   1.407       .  S
S3548      H3549   1.407   1_545  S
C3553      C3554   1.399       .  A
C3553      C3558   1.431       .  A
C3554      C3555   1.408       .  A
C3554      H3563   1.083       .  S
C3555      C3556   1.427       .  A
C3555      S3559   1.802       .  S
C3556      C3557   1.399       .  A
C3557      C3558   1.413       .  A
C3557      H3564   1.083       .  S
C3558      S3560   1.807       .  S
S3559      H3562   1.407       .  S
S3560      H3561   1.408       .  S
C3565      C3566   1.416       .  A
C3565      C3570   1.409       .  A
C3566      C3567   1.412       .  A
C3566      H3575   1.083   1_556  S
C3567      C3568   1.411       .  A
C3567      S3571   1.804       .  S
C3568      C3569   1.419       .  A
C3569      C3570   1.407       .  A
C3569      H3576   1.084       .  S
C3570      S3572   1.799       .  S
S3571      H3574   1.407       .  S
S3572      H3573   1.407       .  S
C3577      C3578   1.409       .  A
C3577      C3582   1.421       .  A
C3578      C3579   1.417   1_554  A
C3578      H3587   1.082       .  S
C3579      C3580   1.424       .  A
C3579      S3583   1.807       .  S
C3580      C3581   1.408       .  A
C3581      C3582   1.407   1_556  A
C3581      H3588   1.084       .  S
C3582      S3584   1.799       .  S
S3583      H3586   1.406       .  S
S3584      H3585   1.408       .  S
C3589      C3590   1.418       .  A
C3589      C3594   1.413       .  A
C3590      C3591   1.416       .  A
C3590      H3599   1.084       .  S
C3591      C3592   1.414       .  A
C3591      S3595   1.801       .  S
C3592      C3593   1.416       .  A
C3593      C3594   1.416       .  A
C3593      H3600   1.083       .  S
C3594      S3596   1.798       .  S
S3595      H3598   1.402       .  S
S3596      H3597   1.406       .  S
C3601      C3602   1.400       .  A
C3601      C3606   1.404       .  A
C3602      C3603   1.400   1_455  A
C3602      H3611   1.083       .  S
C3603      C3604   1.417       .  A
C3603      S3607   1.807       .  S
C3604      C3605   1.407       .  A
C3605      C3606   1.388   1_655  A
C3605      H3612   1.080       .  S
S3607      H3610   1.408       .  S
S3608      H3609   1.405       .  S
C3613      C3614   1.399       .  A
C3613      C3618   1.406       .  A
C3614      C3615   1.398       .  A
C3614      H3623   1.084       .  S
C3615      C3616   1.420       .  A
C3615      S3619   1.803       .  S
C3616      C3617   1.408       .  A
C3617      C3618   1.392       .  A
C3617      H3624   1.083       .  S
S3619      H3622   1.407       .  S
S3620      H3621   1.407       .  S
C3625      C3626   1.406       .  A
C3625      C3630   1.419       .  A
C3626      C3627   1.413       .  A
C3626      H3635   1.084   1_556  S
C3627      C3628   1.417       .  A
C3627      S3631   1.802       .  S
C3628      C3629   1.399       .  A
C3629      C3630   1.397       .  A
C3629      H3636   1.085       .  S
C3630      S3632   1.803       .  S
S3631      H3634   1.406       .  S
S3632      H3633   1.407   1_556  S
C3637      C3638   1.403       .  A
C3637      C3642   1.412       .  A
C3638      C3639   1.395       .  A
C3638      H3647   1.084       .  S
C3639      C3640   1.417       .  A
C3639      S3643   1.803       .  S
C3640      C3641   1.403       .  A
C3641      C3642   1.394       .  A
C3641      H3648   1.084       .  S
C3642      S3644   1.799       .  S
S3643      H3646   1.407       .  S
S3644      H3645   1.408       .  S
