geometry optimzed in LAMMPS
_audit_creation_date              2020-11-30 
_audit_creation_method            'lammps2cif' 
_symmetry_space_group_name_H-M    'P1' 
_symmetry_Int_Tables_number       1 
_symmetry_cell_setting            triclinic 
loop_ 
_symmetry_equiv_pos_as_xyz 
  x,y,z 
_cell_length_a                    43.58323164 
_cell_length_b                    43.602488962488145 
_cell_length_c                    32.59751952364668 
_cell_angle_alpha                 90.01130741482835 
_cell_angle_beta                  89.8081888137072 
_cell_angle_gamma                 119.96681077503729 
loop_ 
_atom_site_label 
_atom_site_type_symbol 
_atom_site_fract_x 
_atom_site_fract_y 
_atom_site_fract_z 
_atom_site_charge 
O1          O  0.47128578  0.43956092  0.33249714    -0.74200
O2          O  0.05953656  0.02739941  0.33198017    -0.74300
O3          O  0.01528918  0.48380806  0.39093858    -0.74300
O4          O  0.01538981  0.48271765  0.27337068    -0.74400
O5          O  0.48738081  0.01376845  0.27300038    -0.74300
O6          O  0.48491987  0.01244346  0.39042167    -0.74300
O7          O  0.02999343  0.05683256  0.33271819    -0.74200
O8          O  0.44219214  0.46942636  0.33066996    -0.74300
Ni9        Ni  0.01646029  0.48232006  0.33220707     1.25400
Ni10       Ni  0.48509757  0.01415307  0.33166695     1.25400
C11         C  0.44210293  0.44001302  0.33147375     0.88000
C12         C  0.05932161  0.05671466  0.33264503     0.87900
C13         C  0.49998405  0.49816511  0.41012192     0.87900
C14         C  0.00136532  0.49810456  0.25384844     0.88100
O15         O  0.47107692  0.19162571  0.33125127    -0.74200
O16         O  0.05933731  0.27896125  0.33115511    -0.74300
O17         O  0.01535648  0.23489674  0.38993776    -0.74300
O18         O  0.01488559  0.23569623  0.27230926    -0.74400
O19         O  0.48650899  0.26630453  0.27340225    -0.74300
O20         O  0.48513764  0.26372528  0.39072355    -0.74300
O21         O  0.03012197  0.30869697  0.33306937    -0.74200
O22         O  0.44183249  0.22136165  0.33123656    -0.74300
Ni23       Ni  0.01620441  0.23422581  0.33109253     1.25400
Ni24       Ni  0.48489918  0.26610194  0.33210967     1.25400
C25         C  0.44184796  0.19198584  0.33143799     0.88000
C26         C  0.05936096  0.30835099  0.33240659     0.87900
C27         C  0.00002060  0.24894039  0.40971147     0.87900
C28         C  0.00076384  0.25132622  0.25340856     0.88100
O29         O  0.28032308  0.05816450  0.33519490    -0.74200
O30         O  0.19291738  0.46986660  0.33551475    -0.74300
O31         O  0.23686471  0.01372532  0.39397677    -0.74300
O32         O  0.23623634  0.01464104  0.27668779    -0.74400
O33         O  0.26506577  0.48443512  0.27555884    -0.74300
O34         O  0.26771731  0.48556823  0.39335084    -0.74300
O35         O  0.22277671  0.44075105  0.33563205    -0.74200
O36         O  0.31007746  0.02896326  0.33316800    -0.74300
Ni37       Ni  0.23552400  0.01511139  0.33540198     1.25400
Ni38       Ni  0.26748790  0.48389041  0.33438954     1.25400
C39         C  0.30972192  0.05815499  0.33400121     0.88000
C40         C  0.19333922  0.44066115  0.33560527     0.87900
C41         C  0.25243204  0.99970918  0.41308916     0.87900
C42         C  0.25032615  0.99949831  0.25671518     0.88100
O43         O  0.26220072  0.23497323  0.27563525    -0.74200
O44         O  0.26471321  0.23712464  0.39313676    -0.74300
O45         O  0.21985640  0.19199073  0.33598129    -0.74300
O46         O  0.30717435  0.27979009  0.33267860    -0.74400
O47         O  0.27774470  0.30933696  0.33402226    -0.74300
O48         O  0.18990571  0.22100897  0.33526506    -0.74300
O49         O  0.23386446  0.26531909  0.39349214    -0.74200
O50         O  0.23331500  0.26507568  0.27604460    -0.74300
Ni51       Ni  0.26453126  0.23495213  0.33436844     1.25400
Ni52       Ni  0.23265741  0.26626349  0.33475160     1.25400
C53         C  0.24754555  0.24990485  0.25637975     0.88000
C54         C  0.24927368  0.25116758  0.41269478     0.87900
C55         C  0.19039687  0.19183580  0.33572292     0.87900
C56         C  0.30705294  0.30909009  0.33284663     0.88100
O57         O  0.02765327  0.46945093  0.99689945    -0.74200
O58         O  0.43997996  0.46984120  0.99979361    -0.74300
O59         O  0.48273346  0.46981813  0.93965477    -0.74300
O60         O  0.48467856  0.46921134  0.05708685    -0.74400
O61         O  0.01338591  0.02818726  0.05723328    -0.74300
O62         O  0.01396317  0.02888007  0.93984414    -0.74300
O63         O  0.46977587  0.02877578  0.99872866    -0.74200
O64         O  0.05734332  0.02838134  0.99840091    -0.74300
Ni65       Ni  0.48270178  0.46746722  0.99833121     1.25400
Ni66       Ni  0.01463827  0.03064919  0.99855167     1.25400
C67         C  0.05702601  0.49885237  0.99759115     0.88000
C68         C  0.44037250  0.49943513  0.99953031     0.87900
C69         C  0.49828209  0.49942544  0.92050549     0.87900
C70         C  0.49922884  0.49863901  0.07658749     0.88100
O71         O  0.06011784  0.28283365  0.99907907    -0.74200
O72         O  0.47212686  0.28266644  0.99781673    -0.74300
O73         O  0.01511569  0.28247129  0.05710181    -0.74300
O74         O  0.01738586  0.28319665  0.93956262    -0.74400
O75         O  0.48604889  0.22413900  0.93941689    -0.74300
O76         O  0.48747979  0.22344832  0.05668250    -0.74300
O77         O  0.44280159  0.22371585  0.99934461    -0.74200
O78         O  0.03066962  0.22391485  0.99683895    -0.74300
Ni79       Ni  0.01722622  0.28492278  0.99837024     1.25400
Ni80       Ni  0.48569751  0.22171771  0.99802977     1.25400
C81         C  0.05995295  0.25337086  0.99789403     0.88000
C82         C  0.44288476  0.25314601  0.99908302     0.87900
C83         C  0.00129635  0.25282316  0.07619138     0.87900
C84         C  0.50191833  0.25371605  0.92025623     0.88100
O85         O  0.22004553  0.02952877  0.00002416    -0.74200
O86         O  0.30747335  0.02868356  0.00201399    -0.74300
O87         O  0.26446916  0.02880946  0.94244114    -0.74300
O88         O  0.26287068  0.02958455  0.05982728    -0.74400
O89         O  0.23389435  0.47056295  0.06019814    -0.74300
O90         O  0.23429353  0.46986978  0.94271050    -0.74300
O91         O  0.27766495  0.46975056  0.00172116    -0.74200
O92         O  0.19031777  0.47059333  0.00106956    -0.74300
Ni93       Ni  0.26479924  0.03124901  0.00106949     1.25400
Ni94       Ni  0.23295938  0.46810095  0.00147449     1.25400
C95         C  0.19067599  0.00015860  0.00027484     0.88000
C96         C  0.30706622  0.99906815  0.00185455     0.87900
C97         C  0.24956188  0.99931087  0.92312467     0.87900
C98         C  0.24818906  0.00014811  0.07938454     0.88100
O99         O  0.22121219  0.28064882  0.00022532    -0.74200
O100        O  0.30896576  0.28054763  0.00282940    -0.74300
O101        O  0.26655182  0.28128711  0.94281142    -0.74300
O102        O  0.26349274  0.28000873  0.06026303    -0.74400
O103        O  0.23587157  0.22097471  0.05961496    -0.74300
O104        O  0.23532185  0.22228562  0.94229718    -0.74300
O105        O  0.27952631  0.22164578  0.00015765    -0.74200
O106        O  0.19170792  0.22171071  0.00156537    -0.74300
Ni107      Ni  0.26613824  0.28273505  0.00157772     1.25400
Ni108      Ni  0.23456609  0.21955202  0.00089719     1.25400
C109        C  0.19190100  0.25118923  0.00058505     0.88000
C110        C  0.30880161  0.25107904  0.00155989     0.87900
C111        C  0.25092737  0.25194372  0.92321875     0.87900
C112        C  0.24945931  0.25029521  0.07921521     0.88100
O113        O  0.02858182  0.47078504  0.66543418    -0.74200
O114        O  0.02946825  0.05911502  0.66480134    -0.74300
O115        O  0.02926360  0.01521100  0.72380639    -0.74300
O116        O  0.02893623  0.01443626  0.60642289    -0.74400
O117        O  0.46988302  0.48660850  0.60684095    -0.74300
O118        O  0.47029365  0.48532997  0.72426788    -0.74300
O119        O  0.47051476  0.02997722  0.66634055    -0.74200
O120        O  0.46961862  0.44179472  0.66470863    -0.74300
Ni121      Ni  0.03117249  0.01595459  0.66510290     1.25400
Ni122      Ni  0.46798940  0.48490001  0.66557415     1.25400
C123        C  0.49894161  0.44165210  0.66498565     0.88000
C124        C  0.50005865  0.05914660  0.66546198     0.87900
C125        C  0.49984388  0.00016113  0.74349281     0.87900
C126        C  0.49936792  0.00049243  0.58732075     0.88100
O127        O  0.03031223  0.22203252  0.66429238    -0.74200
O128        O  0.02946275  0.30935659  0.66405248    -0.74300
O129        O  0.03118989  0.26644412  0.72286405    -0.74300
O130        O  0.02861235  0.26470090  0.60548535    -0.74400
O131        O  0.46957985  0.23571484  0.60712011    -0.74300
O132        O  0.47225004  0.23629850  0.72459533    -0.74300
O133        O  0.47052702  0.27975281  0.66636131    -0.74200
O134        O  0.47135152  0.19227256  0.66537910    -0.74300
Ni135      Ni  0.03196898  0.26672107  0.66408968     1.25400
Ni136      Ni  0.46881476  0.23494126  0.66595039     1.25400
C137        C  0.50096889  0.19266112  0.66476967     0.88000
C138        C  0.49994568  0.30909677  0.66529972     0.87900
C139        C  0.50210954  0.25152632  0.74320491     0.87900
C140        C  0.49875335  0.24983737  0.58693458     0.88100
O141        O  0.22175480  0.02840067  0.67001503    -0.74200
O142        O  0.22132437  0.44066336  0.66679920    -0.74300
O143        O  0.22119555  0.48302506  0.72706645    -0.74300
O144        O  0.22246600  0.48614816  0.60954652    -0.74400
O145        O  0.28148578  0.01407311  0.61016843    -0.74300
O146        O  0.28031323  0.01401131  0.72742962    -0.74300
O147        O  0.28026733  0.46973925  0.66885606    -0.74200
O148        O  0.28071123  0.05807888  0.66893361    -0.74300
Ni149      Ni  0.21960282  0.48355150  0.66831629     1.25400
Ni150      Ni  0.28282474  0.01503689  0.66885125     1.25400
C151        C  0.25110170  0.05775324  0.67002172     0.88000
C152        C  0.25063295  0.44056781  0.66752048     0.87900
C153        C  0.25063356  0.99832491  0.74641651     0.87900
C154        C  0.25222395  0.00012793  0.59049223     0.88100
O155        O  0.21961057  0.18934635  0.66915656    -0.74200
O156        O  0.21786339  0.27650237  0.66753261    -0.74300
O157        O  0.21852700  0.23249856  0.60944186    -0.74300
O158        O  0.21875765  0.23350928  0.72699790    -0.74400
O159        O  0.27774928  0.26469538  0.72657970    -0.74300
O160        O  0.27755525  0.26163867  0.60930632    -0.74300
O161        O  0.27682380  0.30638230  0.66609047    -0.74200
O162        O  0.27855178  0.21970712  0.66991600    -0.74300
Ni163      Ni  0.21654479  0.23181965  0.66827814     1.25400
Ni164      Ni  0.27971962  0.26413029  0.66793784     1.25400
C165        C  0.24943059  0.19012751  0.67014729     0.88000
C166        C  0.24721587  0.30592813  0.66648247     0.87900
C167        C  0.24808729  0.24708722  0.58997374     0.87900
C168        C  0.24828796  0.24951231  0.74617053     0.88100
C169        C  0.28001816  0.37196355  0.66481062    -0.21100
C170        C  0.24745257  0.34006035  0.66601406    -0.09100
C171        C  0.21592369  0.34155946  0.66725747     0.29700
C172        C  0.21725817  0.37428129  0.66764698    -0.21100
C173        C  0.24990337  0.40618858  0.66679632    -0.09200
C174        C  0.28135074  0.40461229  0.66520831     0.29700
F175        F  0.31354082  0.43450839  0.66399110    -0.19700
H176        H  0.30474870  0.37179450  0.66370817     0.18100
H177        H  0.19257670  0.37454581  0.66879516     0.18100
F178        F  0.18376302  0.31158906  0.66829903    -0.19700
C179        C  0.28253134  0.12411563  0.67081676    -0.21100
C180        C  0.25061619  0.09159406  0.67121999    -0.09100
C181        C  0.21841471  0.09191295  0.67255070     0.29700
C182        C  0.21835644  0.12393856  0.67258248    -0.21100
C183        C  0.25022757  0.15645311  0.67136496    -0.09200
C184        C  0.28246581  0.15618074  0.67092130     0.29700
F185        F  0.31406694  0.18679679  0.67019902    -0.19700
H186        H  0.30770457  0.12483402  0.67011501     0.18100
H187        H  0.19315765  0.12316938  0.67329737     0.18100
F188        F  0.18677212  0.06135004  0.67356024    -0.19700
C189        C  0.03083862  0.40744903  0.66885890    -0.21100
C190        C  0.49877732  0.40753334  0.66494567    -0.09100
C191        C  0.46708422  0.37488942  0.66106445     0.29700
C192        C  0.46768280  0.34311033  0.66152067    -0.21100
C193        C  0.49979230  0.34306924  0.66537331    -0.09200
C194        C  0.03147408  0.37573783  0.66895224     0.29700
F195        F  0.06322379  0.37728640  0.67272512    -0.19700
H196        H  0.05564878  0.43203022  0.67189341     0.18100
H197        H  0.44291282  0.31849671  0.65843382     0.18100
F198        F  0.43546798  0.37347753  0.65633229    -0.19700
C199        C  0.46903919  0.12656342  0.66169451    -0.21100
C200        C  0.50115069  0.15871454  0.66465412    -0.09100
C201        C  0.03294940  0.15779604  0.66763873     0.29700
C202        C  0.03235507  0.12542434  0.66780653    -0.21100
C203        C  0.50019068  0.09326199  0.66508742    -0.09200
C204        C  0.46843705  0.09423206  0.66190317     0.29700
F205        F  0.43664635  0.06403243  0.65875657    -0.19700
H206        H  0.44417320  0.12632361  0.65916024     0.18100
H207        H  0.05719724  0.12561345  0.67030274     0.18100
F208        F  0.06470280  0.18804729  0.67078736    -0.19700
C209        C  0.27779712  0.27746556  0.81230059    -0.21100
C210        C  0.24852641  0.25049764  0.79149251    -0.09100
C211        C  0.21998436  0.22444196  0.81443954     0.29700
C212        C  0.22115485  0.22510786  0.85724032    -0.21100
C213        C  0.25035814  0.25204996  0.87799813    -0.09200
C214        C  0.27863304  0.27850376  0.85517455     0.29700
F215        F  0.30750761  0.30472139  0.87420895    -0.19700
H216        H  0.30004929  0.29790269  0.79533947     0.18100
H217        H  0.19899312  0.20459175  0.87424737     0.18100
F218        F  0.19131693  0.19776984  0.79563925    -0.19700
C219        C  0.23858559  0.46731455  0.85621329    -0.21100
C220        C  0.25000637  0.99922428  0.87766270    -0.09100
C221        C  0.26179508  0.03080937  0.85511711     0.29700
C222        C  0.26221447  0.03025790  0.81230160    -0.21100
C223        C  0.25045751  0.99836590  0.79128471    -0.09200
C224        C  0.23873050  0.46685006  0.81333139     0.29700
F225        F  0.22823576  0.43586292  0.79334646    -0.19700
H226        H  0.22966091  0.44263597  0.87263186     0.18100
H227        H  0.27126126  0.05476117  0.79541117     0.18100
F228        F  0.27244454  0.06218685  0.87421998    -0.19700
C229        C  0.37676058  0.22081093  0.99493459    -0.21100
C230        C  0.40869066  0.25282222  0.00033251    -0.09100
C231        C  0.40732675  0.28402698  0.00710945     0.29700
C232        C  0.37481856  0.28313399  0.00759039    -0.21100
C233        C  0.34291587  0.25120851  0.00161914    -0.09200
C234        C  0.34424005  0.21988676  0.99556017     0.29700
F235        F  0.31426144  0.18831750  0.98972854    -0.19700
H236        H  0.37688138  0.19634581  0.98983782     0.18100
H237        H  0.37470503  0.30759047  0.01277784     0.18100
F238        F  0.43727012  0.31543779  0.01378168    -0.19700
C239        C  0.09351764  0.22072621  0.99995924    -0.21100
C240        C  0.09386596  0.25311477  0.99800698    -0.09100
C241        C  0.12675617  0.28476232  0.99656242     0.29700
C242        C  0.15832015  0.28380146  0.99738591    -0.21100
C243        C  0.15797785  0.25142547  0.99967133    -0.09200
C244        C  0.12507763  0.21976476  0.00085396     0.29700
F245        F  0.12315109  0.18776113  0.00309835    -0.19700
H246        H  0.06870870  0.19592108  0.00109664     0.18100
H247        H  0.18312607  0.30860670  0.99624202     0.18100
F248        F  0.12865947  0.31675292  0.99427096    -0.19700
C249        C  0.03435898  0.27083467  0.85367769    -0.21100
C250        C  0.50221838  0.25360245  0.87523985    -0.09100
C251        C  0.47036479  0.23532972  0.85356301     0.29700
C252        C  0.47063063  0.23485809  0.81075636    -0.21100
C253        C  0.50272497  0.25199997  0.78872938    -0.09200
C254        C  0.03479974  0.26964333  0.81077926     0.29700
F255        F  0.06657333  0.28555513  0.79114853    -0.19700
H256        H  0.05921858  0.28458272  0.87018654     0.18100
H257        H  0.44550179  0.22094608  0.79484676     0.18100
F258        F  0.43892549  0.21862481  0.87385762    -0.19700
C259        C  0.37411413  0.46741396  0.00040857    -0.21100
C260        C  0.40639705  0.49960038  0.00018899    -0.09100
C261        C  0.40560740  0.03152020  0.00069183     0.29700
C262        C  0.37329843  0.03101899  0.00132779    -0.21100
C263        C  0.34101703  0.99884603  0.00155305    -0.09200
C264        C  0.34179700  0.46691008  0.00112624     0.29700
F265        F  0.31145484  0.43505852  0.00139329    -0.19700
H266        H  0.37376141  0.44242045  0.00004019     0.18100
H267        H  0.37365924  0.05601574  0.00162216     0.18100
F268        F  0.43594672  0.06336679  0.00063635    -0.19700
C269        C  0.12322952  0.03121836  0.99989173    -0.21100
C270        C  0.09110049  0.49893051  0.99784383    -0.09100
C271        C  0.09214119  0.46717161  0.99664088     0.29700
C272        C  0.12454488  0.46791039  0.99748473    -0.21100
C273        C  0.15666266  0.00017528  0.99954163    -0.09200
C274        C  0.15564366  0.03195577  0.00080241     0.29700
F275        F  0.18582668  0.06384256  0.00319297    -0.19700
H276        H  0.12337967  0.05610004  0.00100569     0.18100
H277        H  0.12438602  0.44302250  0.99647036     0.18100
F278        F  0.06195862  0.43526563  0.99469889    -0.19700
C279        C  0.03040121  0.02015194  0.85426580    -0.21100
C280        C  0.49851546  0.49961298  0.87547082    -0.09100
C281        C  0.46719121  0.47917303  0.85337793     0.29700
C282        C  0.46785868  0.47949718  0.81052295    -0.21100
C283        C  0.49981782  0.49989186  0.78896913    -0.09200
C284        C  0.03127593  0.02007439  0.81142055     0.29700
F285        F  0.06287530  0.03995352  0.79220621    -0.19700
H286        H  0.05484160  0.03589458  0.87102027     0.18100
H287        H  0.44320714  0.46370821  0.79420019     0.18100
F288        F  0.43581122  0.45980085  0.87323940    -0.19700
C289        C  0.27720646  0.25125350  0.47937034    -0.21100
C290        C  0.24899576  0.25064714  0.45802095    -0.09100
C291        C  0.22033755  0.24860396  0.48035958     0.29700
C292        C  0.21989260  0.24676493  0.52322370    -0.21100
C293        C  0.24829790  0.24772520  0.54460552    -0.09200
C294        C  0.27711581  0.25016538  0.52222531     0.29700
F295        F  0.30491032  0.25078036  0.54166880    -0.19700
H296        H  0.29956588  0.25285299  0.46281058     0.18100
H297        H  0.19748678  0.24508287  0.53975680     0.18100
F298        F  0.19232202  0.24743098  0.46079050    -0.19700
C299        C  0.25703147  0.22790531  0.18933371    -0.21100
C300        C  0.24730961  0.24973164  0.21088838    -0.09100
C301        C  0.23806581  0.27157468  0.18842912     0.29700
C302        C  0.23919815  0.27183204  0.14557151    -0.21100
C303        C  0.24873083  0.24988660  0.12431960    -0.09200
C304        C  0.25752768  0.22776451  0.14646445     0.29700
F305        F  0.26776112  0.20693184  0.12666615    -0.19700
H306        H  0.26432760  0.21084366  0.20568518     0.18100
H307        H  0.23217322  0.28894872  0.12884900     0.18100
F308        F  0.22840399  0.29308084  0.20766655    -0.19700
C309        C  0.27934550  0.99798780  0.48023634    -0.21100
C310        C  0.25252741  0.99986001  0.45851341    -0.09100
C311        C  0.22581502  0.50193772  0.48065507     0.29700
C312        C  0.22580530  0.50170401  0.52349343    -0.21100
C313        C  0.25274082  0.00018929  0.54518641    -0.09200
C314        C  0.27971883  0.99849594  0.52318990     0.29700
F315        F  0.30590793  0.99639690  0.54314685    -0.19700
H316        H  0.30025340  0.99646680  0.46393927     0.18100
H317        H  0.20482808  0.50311299  0.53978555     0.18100
F318        F  0.19920882  0.50346365  0.46098953    -0.19700
C319        C  0.24914305  0.47258612  0.14585926    -0.21100
C320        C  0.24818586  0.00012514  0.12470262    -0.09100
C321        C  0.24749520  0.02730545  0.14725012     0.29700
C322        C  0.24782365  0.02674064  0.19018306    -0.21100
C323        C  0.24952137  0.99951687  0.21133159    -0.09200
C324        C  0.25014637  0.47236966  0.18868302     0.29700
F325        F  0.25098730  0.44518365  0.20786804    -0.19700
H326        H  0.24966318  0.45136223  0.12913303     0.18100
H327        H  0.24718539  0.04789159  0.20692909     0.18100
F328        F  0.24572464  0.05395628  0.12790615    -0.19700
C329        C  0.47145591  0.24863486  0.47631739    -0.21100
C330        C  0.49930727  0.24813786  0.45503947    -0.09100
C331        C  0.02645097  0.24745674  0.47751178     0.29700
C332        C  0.02603376  0.24814232  0.52035418    -0.21100
C333        C  0.49825845  0.24872250  0.54163820    -0.09200
C334        C  0.47062861  0.24851006  0.51921480     0.29700
F335        F  0.44339350  0.24923664  0.53862935    -0.19700
H336        H  0.45011400  0.24895028  0.45964803     0.18100
H337        H  0.04747933  0.24801407  0.53700242     0.18100
F338        F  0.05394924  0.24720147  0.45816786    -0.19700
C339        C  0.40808055  0.12583393  0.33201506    -0.21100
C340        C  0.40783355  0.15794973  0.33214002    -0.09100
C341        C  0.37498276  0.15687764  0.33338499     0.29700
C342        C  0.34335131  0.12441372  0.33393501    -0.21100
C343        C  0.34362336  0.09230229  0.33355805    -0.09200
C344        C  0.37649163  0.09340416  0.33283334     0.29700
F345        F  0.37838028  0.06325791  0.33304011    -0.19700
H346        H  0.43282698  0.12568799  0.33136564     0.18100
H347        H  0.31858288  0.12451054  0.33472864     0.18100
F348        F  0.37318304  0.18706441  0.33428242    -0.19700
C349        C  0.12577509  0.34202839  0.33361838    -0.21100
C350        C  0.09360271  0.34224921  0.33329236    -0.09100
C351        C  0.09470914  0.37509580  0.33407503     0.29700
C352        C  0.12713334  0.40669887  0.33508991    -0.21100
C353        C  0.15930473  0.40654392  0.33530113    -0.09200
C354        C  0.15826344  0.37369518  0.33463457     0.29700
F355        F  0.18849632  0.37193507  0.33484394    -0.19700
H356        H  0.12589436  0.31727668  0.33310304     0.18100
H357        H  0.12693561  0.43141097  0.33556603     0.18100
F358        F  0.06454013  0.37695051  0.33374998    -0.19700
C359        C  0.00759231  0.22826111  0.18579774    -0.21100
C360        C  0.00087040  0.25197045  0.20794700    -0.09100
C361        C  0.49440047  0.27610010  0.18613747     0.32100
C362        C  0.49499920  0.27649594  0.14325357    -0.21100
C363        C  0.00127129  0.25248202  0.12134997    -0.09200
C364        C  0.00750948  0.22826010  0.14293055     0.29700
F365        F  0.01450448  0.20526256  0.12255871    -0.19700
H366        H  0.01269769  0.20941651  0.20170171     0.18100
H367        H  0.49003796  0.29532363  0.12705254     0.18100
F368        F  0.48797667  0.29966294  0.20608226    -0.19700
C369        C  0.47526872  0.00467732  0.47683791    -0.21100
C370        C  0.49976007  0.49843951  0.45557042    -0.09100
C371        C  0.02415234  0.49303962  0.47822076     0.29700
C372        C  0.02406881  0.49418636  0.52105152    -0.21100
C373        C  0.49936246  0.00003122  0.54214148    -0.09200
C374        C  0.47485232  0.00523176  0.51972634     0.29700
F375        F  0.45123159  0.01189843  0.53924055    -0.19700
H376        H  0.45623915  0.00900788  0.46023109     0.18100
H377        H  0.04313272  0.49003498  0.53786673     0.18100
F378        F  0.04855510  0.48731031  0.45912078    -0.19700
C379        C  0.37595215  0.40704792  0.32710766    -0.21100
C380        C  0.40772146  0.40633581  0.33128914    -0.09100
C381        C  0.40595929  0.37335172  0.33547378     0.29700
C382        C  0.37320230  0.34208355  0.33571558    -0.21100
C383        C  0.34141110  0.34279773  0.33189468    -0.09200
C384        C  0.34317403  0.37575010  0.32734080     0.29700
F385        F  0.31337793  0.37793881  0.32282842    -0.19700
H386        H  0.37636485  0.43192016  0.32359913     0.18100
H387        H  0.37282010  0.31722841  0.33925766     0.18100
F388        F  0.43573373  0.37108294  0.33977737    -0.19700
C389        C  0.09233738  0.12294413  0.33304307    -0.21100
C390        C  0.09311339  0.09106325  0.33349664    -0.09100
C391        C  0.12621337  0.09273862  0.33499292     0.29700
C392        C  0.15752261  0.12551517  0.33605055    -0.21100
C393        C  0.15671527  0.15738980  0.33549250    -0.09200
C394        C  0.12361701  0.15568901  0.33397224     0.29700
F395        F  0.12123136  0.18555242  0.33312589    -0.19700
H396        H  0.06739486  0.12266723  0.33184905     0.18100
H397        H  0.18249222  0.12583985  0.33713790     0.18100
F398        F  0.12856298  0.06284914  0.33541617    -0.19700
C399        C  0.99487175  0.46834272  0.14339392    -0.21100
C400        C  0.49982503  0.49851765  0.12201360    -0.09100
C401        C  0.50536816  0.02842692  0.14453177     0.29700
C402        C  0.50576127  0.02794251  0.18735570    -0.21100
C403        C  0.50125987  0.49800849  0.20861127    -0.09200
C404        C  0.99584651  0.46811508  0.18630539     0.29700
F405        F  0.99035483  0.43832965  0.20596478    -0.19700
H406        H  0.99046105  0.44491648  0.12686504     0.18100
H407        H  0.50988860  0.05121887  0.20402060     0.18100
F408        F  0.50970778  0.05795749  0.12531995    -0.19700
O409        O  0.47128496  0.93956113  0.33249781    -0.74200
O410        O  0.05953676  0.52739948  0.33197984    -0.74300
O411        O  0.01528913  0.98380837  0.39093915    -0.74300
O412        O  0.01538978  0.98271717  0.27337106    -0.74400
O413        O  0.48738186  0.51376905  0.27300094    -0.74300
O414        O  0.48491930  0.51244187  0.39042228    -0.74300
O415        O  0.02999375  0.55683275  0.33271808    -0.74200
O416        O  0.44219174  0.96942698  0.33067073    -0.74300
Ni417      Ni  0.01646029  0.98231993  0.33220761     1.25400
Ni418      Ni  0.48509782  0.51415267  0.33166756     1.25400
C419        C  0.44210228  0.94001352  0.33147489     0.88000
C420        C  0.05932191  0.55671479  0.33264472     0.87900
C421        C  0.49998438  0.99816663  0.41012161     0.87900
C422        C  0.00136549  0.99810418  0.25384861     0.88100
O423        O  0.47107661  0.69162521  0.33125191    -0.74200
O424        O  0.05933737  0.77896251  0.33115517    -0.74300
O425        O  0.01535720  0.73489712  0.38993771    -0.74300
O426        O  0.01488614  0.73569681  0.27230907    -0.74400
O427        O  0.48650863  0.76630322  0.27340301    -0.74300
O428        O  0.48513839  0.76372560  0.39072429    -0.74300
O429        O  0.03012098  0.80869715  0.33307047    -0.74200
O430        O  0.44183234  0.72136130  0.33123803    -0.74300
Ni431      Ni  0.01620523  0.73422635  0.33109241     1.25400
Ni432      Ni  0.48489936  0.76610146  0.33211040     1.25400
C433        C  0.44184765  0.69198541  0.33143885     0.88000
C434        C  0.05936038  0.80835193  0.33240723     0.87900
C435        C  0.00002040  0.74893981  0.40971150     0.87900
C436        C  0.00076387  0.75132647  0.25340866     0.88100
O437        O  0.28032246  0.55816333  0.33519329    -0.74200
O438        O  0.19291731  0.96986828  0.33551534    -0.74300
O439        O  0.23686422  0.51372450  0.39397575    -0.74300
O440        O  0.23623609  0.51463872  0.27668680    -0.74400
O441        O  0.26506567  0.98443712  0.27555906    -0.74300
O442        O  0.26771712  0.98556840  0.39335121    -0.74300
O443        O  0.22277624  0.94075233  0.33563159    -0.74200
O444        O  0.31007728  0.52896252  0.33316705    -0.74300
Ni445      Ni  0.23552365  0.51510987  0.33540088     1.25400
Ni446      Ni  0.26748773  0.98389144  0.33438976     1.25400
C447        C  0.30972147  0.55815412  0.33399968     0.88000
C448        C  0.19333884  0.94066267  0.33560516     0.87900
C449        C  0.25243189  0.49970883  0.41308840     0.87900
C450        C  0.25032621  0.49949609  0.25671460     0.88100
O451        O  0.26220150  0.73497494  0.27563525    -0.74200
O452        O  0.26471240  0.73712514  0.39313676    -0.74300
O453        O  0.21985669  0.69199146  0.33598050    -0.74300
O454        O  0.30717389  0.77979134  0.33267953    -0.74400
O455        O  0.27774383  0.80933779  0.33402327    -0.74300
O456        O  0.18990554  0.72100922  0.33526390    -0.74300
O457        O  0.23386301  0.76531896  0.39349190    -0.74200
O458        O  0.23331542  0.76507702  0.27604436    -0.74300
Ni459      Ni  0.26453122  0.73495320  0.33436847     1.25400
Ni460      Ni  0.23265685  0.76626403  0.33475140     1.25400
C461        C  0.24754650  0.74990665  0.25637960     0.88000
C462        C  0.24927230  0.75116758  0.41269463     0.87900
C463        C  0.19039701  0.69183622  0.33572189     0.87900
C464        C  0.30705219  0.80909118  0.33284803     0.88100
O465        O  0.02765434  0.96945256  0.99689785    -0.74200
O466        O  0.43998055  0.96984053  0.99979361    -0.74300
O467        O  0.48273429  0.96981747  0.93965481    -0.74300
O468        O  0.48467961  0.96921172  0.05708665    -0.74400
O469        O  0.01338293  0.52818500  0.05723341    -0.74300
O470        O  0.01396192  0.52887784  0.93984459    -0.74300
O471        O  0.46977584  0.52877647  0.99872891    -0.74200
O472        O  0.05734150  0.52837972  0.99840259    -0.74300
Ni473      Ni  0.48270281  0.96746722  0.99833120     1.25400
Ni474      Ni  0.01463606  0.53064685  0.99855199     1.25400
C475        C  0.05702734  0.99885376  0.99758891     0.88000
C476        C  0.44037271  0.99943428  0.99953057     0.87900
C477        C  0.49828240  0.99942458  0.92050514     0.87900
C478        C  0.49922970  0.99863945  0.07658711     0.88100
O479        O  0.06011815  0.78283458  0.99908142    -0.74200
O480        O  0.47212721  0.78266627  0.99781605    -0.74300
O481        O  0.01511425  0.78247097  0.05710263    -0.74300
O482        O  0.01738856  0.78319991  0.93956356    -0.74400
O483        O  0.48604765  0.72413696  0.93941827    -0.74300
O484        O  0.48748082  0.72344898  0.05668387    -0.74300
O485        O  0.44280152  0.72371571  0.99934609    -0.74200
O486        O  0.03066978  0.72391585  0.99683936    -0.74300
Ni487      Ni  0.01722677  0.78492414  0.99837121     1.25400
Ni488      Ni  0.48569734  0.72171713  0.99803117     1.25400
C489        C  0.05995313  0.75337173  0.99789563     0.88000
C490        C  0.44288498  0.75314606  0.99908284     0.87900
C491        C  0.00129400  0.75282237  0.07619131     0.87900
C492        C  0.50191703  0.75371355  0.92025674     0.88100
O493        O  0.22004514  0.52952959  0.00002588    -0.74200
O494        O  0.30747330  0.52868475  0.00201266    -0.74300
O495        O  0.26446847  0.52881114  0.94244112    -0.74300
O496        O  0.26287121  0.52958477  0.05982740    -0.74400
O497        O  0.23389306  0.97056273  0.06019896    -0.74300
O498        O  0.23429475  0.96986802  0.94271116    -0.74300
O499        O  0.27766487  0.96974936  0.00172419    -0.74200
O500        O  0.19031782  0.97059252  0.00106802    -0.74300
Ni501      Ni  0.26479905  0.53125002  0.00106962     1.25400
Ni502      Ni  0.23295936  0.96809992  0.00147529     1.25400
C503        C  0.19067571  0.50015930  0.00027732     0.88000
C504        C  0.30706625  0.49906936  0.00185186     0.87900
C505        C  0.24956115  0.49931274  0.92312425     0.87900
C506        C  0.24819025  0.50014809  0.07938417     0.88100
O507        O  0.22121254  0.78065015  0.00022579    -0.74200
O508        O  0.30896670  0.78054967  0.00282752    -0.74300
O509        O  0.26655141  0.78128852  0.94281073    -0.74300
O510        O  0.26349436  0.78001087  0.06026248    -0.74400
O511        O  0.23587338  0.72097685  0.05961489    -0.74300
O512        O  0.23532177  0.72228701  0.94229709    -0.74300
O513        O  0.27952730  0.72164781  0.00015640    -0.74200
O514        O  0.19170857  0.72171204  0.00156627    -0.74300
Ni515      Ni  0.26613887  0.78273679  0.00157706     1.25400
Ni516      Ni  0.23456697  0.71955377  0.00089710     1.25400
C517        C  0.19190143  0.75119045  0.00058598     0.88000
C518        C  0.30880261  0.75108109  0.00155776     0.87900
C519        C  0.25092679  0.75194498  0.92321835     0.87900
C520        C  0.24946120  0.75029748  0.07921491     0.88100
O521        O  0.02858129  0.97078517  0.66543293    -0.74200
O522        O  0.02947086  0.55911595  0.66480100    -0.74300
O523        O  0.02926521  0.51521184  0.72380683    -0.74300
O524        O  0.02893775  0.51443605  0.60642297    -0.74400
O525        O  0.46988329  0.98661041  0.60684041    -0.74300
O526        O  0.47029329  0.98532952  0.72426751    -0.74300
O527        O  0.47051457  0.52997658  0.66633966    -0.74200
O528        O  0.46961830  0.94179516  0.66470715    -0.74300
Ni529      Ni  0.03117410  0.51595495  0.66510321     1.25400
Ni530      Ni  0.46798930  0.98490063  0.66557370     1.25400
C531        C  0.49894124  0.94165247  0.66498470     0.88000
C532        C  0.50005842  0.55914603  0.66546055     0.87900
C533        C  0.49984428  0.50016188  0.74349310     0.87900
C534        C  0.49936748  0.50049033  0.58732099     0.88100
O535        O  0.03031541  0.72203406  0.66429222    -0.74200
O536        O  0.02946556  0.80935797  0.66405083    -0.74300
O537        O  0.03119412  0.76644675  0.72286340    -0.74300
O538        O  0.02861421  0.76470144  0.60548470    -0.74400
O539        O  0.46958137  0.73571647  0.60712016    -0.74300
O540        O  0.47224930  0.73629723  0.72459530    -0.74300
O541        O  0.47052764  0.77975327  0.66636230    -0.74200
O542        O  0.47135168  0.69227265  0.66537767    -0.74300
Ni543      Ni  0.03197202  0.76672257  0.66408890     1.25400
Ni544      Ni  0.46881518  0.73494154  0.66595026     1.25400
C545        C  0.50096898  0.69266106  0.66476814     0.88000
C546        C  0.49994629  0.80909731  0.66530136     0.87900
C547        C  0.50210855  0.75152444  0.74320543     0.87900
C548        C  0.49875512  0.74983914  0.58693518     0.88100
O549        O  0.22175754  0.52840188  0.67001641    -0.74200
O550        O  0.22132031  0.94066143  0.66680148    -0.74300
O551        O  0.22119184  0.98302482  0.72706719    -0.74300
O552        O  0.22246332  0.98614567  0.60954692    -0.74400
O553        O  0.28148844  0.51407555  0.61016714    -0.74300
O554        O  0.28031684  0.51401346  0.72742855    -0.74300
O555        O  0.28026329  0.96973679  0.66885785    -0.74200
O556        O  0.28071394  0.55808088  0.66893319    -0.74300
Ni557      Ni  0.21959948  0.98355002  0.66831680     1.25400
Ni558      Ni  0.28282804  0.51503917  0.66885006     1.25400
C559        C  0.25110418  0.55775473  0.67002277     0.88000
C560        C  0.25062875  0.94056557  0.66752265     0.87900
C561        C  0.25063726  0.49832604  0.74641567     0.87900
C562        C  0.25222637  0.50013041  0.59049134     0.88100
O563        O  0.21960919  0.68934531  0.66915596    -0.74200
O564        O  0.21786004  0.77650040  0.66753281    -0.74300
O565        O  0.21852448  0.73249736  0.60944155    -0.74300
O566        O  0.21875535  0.73350752  0.72699769    -0.74400
O567        O  0.27774694  0.76469475  0.72657924    -0.74300
O568        O  0.27755274  0.76163825  0.60930599    -0.74300
O569        O  0.27682045  0.80638112  0.66609032    -0.74200
O570        O  0.27855038  0.71970716  0.66991547    -0.74300
Ni571      Ni  0.21654237  0.73181809  0.66827789     1.25400
Ni572      Ni  0.27971719  0.76412975  0.66793744     1.25400
C573        C  0.24942957  0.69012722  0.67014690     0.88000
C574        C  0.24721228  0.80592641  0.66648266     0.87900
C575        C  0.24808479  0.74708650  0.58997343     0.87900
C576        C  0.24828571  0.74951123  0.74617017     0.88100
C577        C  0.28001418  0.87196168  0.66481428    -0.21100
C578        C  0.24744858  0.84005838  0.66601477    -0.09100
C579        C  0.21591951  0.84155722  0.66725549     0.29700
C580        C  0.21725387  0.87427898  0.66764610    -0.21100
C581        C  0.24989903  0.90618633  0.66679834    -0.09200
C582        C  0.28134654  0.90461026  0.66521220     0.29700
F583        F  0.31353663  0.93450642  0.66399672    -0.19700
H584        H  0.30474468  0.87179286  0.66371369     0.18100
H585        H  0.19257198  0.87454340  0.66879227     0.18100
F586        F  0.18375887  0.81158663  0.66829267    -0.19700
C587        C  0.28253273  0.62411723  0.67081469    -0.21100
C588        C  0.25061801  0.59159523  0.67122196    -0.09100
C589        C  0.21841622  0.59191334  0.67255669     0.29700
C590        C  0.21835697  0.62393849  0.67258762    -0.21100
C591        C  0.25022759  0.65645338  0.67136540    -0.09200
C592        C  0.28246626  0.65618191  0.67091832     0.29700
F593        F  0.31406691  0.68679840  0.67019120    -0.19700
H594        H  0.30770607  0.62483625  0.67010990     0.18100
H595        H  0.19315831  0.62316869  0.67330558     0.18100
F596        F  0.18677413  0.56135005  0.67357095    -0.19700
C597        C  0.03083989  0.90744999  0.66885426    -0.21100
C598        C  0.49877711  0.90753375  0.66494549    -0.09100
C599        C  0.46708399  0.87488955  0.66106625     0.29700
C600        C  0.46768298  0.84311067  0.66152304    -0.21100
C601        C  0.49979266  0.84306978  0.66537473    -0.09200
C602        C  0.03147607  0.87573912  0.66894694     0.29700
F603        F  0.06322623  0.87728836  0.67271797    -0.19700
H604        H  0.05564958  0.93203124  0.67188865     0.18100
H605        H  0.44291256  0.81849646  0.65843745     0.18100
F606        F  0.43546743  0.87347728  0.65633577    -0.19700
C607        C  0.46903909  0.62656318  0.66169122    -0.21100
C608        C  0.50115065  0.65871431  0.66465121    -0.09100
C609        C  0.03295265  0.65779754  0.66763877     0.29700
C610        C  0.03235827  0.62542581  0.66780618    -0.21100
C611        C  0.50019042  0.59326151  0.66508480    -0.09200
C612        C  0.46843690  0.59423171  0.66189977     0.29700
F613        F  0.43664625  0.56403212  0.65875228    -0.19700
H614        H  0.44417330  0.62632345  0.65915688     0.18100
H615        H  0.05720052  0.62561482  0.67030210     0.18100
F616        F  0.06470606  0.68804878  0.67078733    -0.19700
C617        C  0.27779473  0.77746608  0.81229959    -0.21100
C618        C  0.24852441  0.75049711  0.79149211    -0.09100
C619        C  0.21998305  0.72444114  0.81443968     0.29700
C620        C  0.22115394  0.72510774  0.85724045    -0.21100
C621        C  0.25035691  0.75205082  0.87799770    -0.09200
C622        C  0.27863100  0.77850500  0.85517352     0.29700
F623        F  0.30750522  0.80472369  0.87420727    -0.19700
H624        H  0.30004628  0.79790346  0.79533807     0.18100
H625        H  0.19899275  0.70459128  0.87424796     0.18100
F626        F  0.19131596  0.69776813  0.79563993    -0.19700
C627        C  0.23860009  0.96731532  0.85621365    -0.21100
C628        C  0.25000670  0.49922616  0.87766214    -0.09100
C629        C  0.26181183  0.53081367  0.85511611     0.29700
C630        C  0.26223317  0.53026185  0.81230066    -0.21100
C631        C  0.25046107  0.49836730  0.79128401    -0.09200
C632        C  0.23874401  0.96685119  0.81333166     0.29700
F633        F  0.22826483  0.93586728  0.79334616    -0.19700
H634        H  0.22968857  0.94263909  0.87263206     0.18100
H635        H  0.27129276  0.55476710  0.79541000     0.18100
F636        F  0.27247632  0.56219428  0.87421832    -0.19700
C637        C  0.37676088  0.72081199  0.99493226    -0.21100
C638        C  0.40869115  0.75282291  0.00033077    -0.09100
C639        C  0.40732774  0.78402813  0.00710643     0.29700
C640        C  0.37481979  0.78313565  0.00758682    -0.21100
C641        C  0.34291685  0.75121039  0.00161599    -0.09200
C642        C  0.34424063  0.71988840  0.99555699     0.29700
F643        F  0.31426184  0.68831943  0.98972469    -0.19700
H644        H  0.37688131  0.69634651  0.98983580     0.18100
H645        H  0.37470660  0.80759256  0.01277385     0.18100
F646        F  0.43727138  0.81543882  0.01377813    -0.19700
C647        C  0.09351783  0.72072703  0.99996252    -0.21100
C648        C  0.09386608  0.75311552  0.99800875    -0.09100
C649        C  0.12675620  0.78476301  0.99656219     0.29700
C650        C  0.15832026  0.78380230  0.99738573    -0.21100
C651        C  0.15797811  0.75142643  0.99967267    -0.09200
C652        C  0.12507793  0.71976569  0.00085683     0.29700
F653        F  0.12315153  0.68776217  0.00310217    -0.19700
H654        H  0.06870897  0.69592199  0.00110122     0.18100
H655        H  0.18312599  0.80860742  0.99624034     0.18100
F656        F  0.12865935  0.81675343  0.99426813    -0.19700
C657        C  0.03436377  0.77083619  0.85367794    -0.21100
C658        C  0.50221676  0.75359903  0.87524037    -0.09100
C659        C  0.47036323  0.73532512  0.85356350     0.29700
C660        C  0.47062921  0.73485377  0.81075680    -0.21100
C661        C  0.50272351  0.75199686  0.78872991    -0.09200
C662        C  0.03480458  0.76964470  0.81077937     0.29700
F663        F  0.06657827  0.78555306  0.79114879    -0.19700
H664        H  0.05922316  0.78458126  0.87018694     0.18100
H665        H  0.44550021  0.72094100  0.79484687     0.18100
F666        F  0.43892397  0.71861908  0.87385809    -0.19700
C667        C  0.37411429  0.96741278  0.00041595    -0.21100
C668        C  0.40639713  0.99959933  0.00019046    -0.09100
C669        C  0.40560746  0.53152130  0.00069504     0.29700
C670        C  0.37329851  0.53102014  0.00132977    -0.21100
C671        C  0.34101704  0.49884726  0.00154974    -0.09200
C672        C  0.34179711  0.96690889  0.00113431     0.29700
F673        F  0.31145499  0.93505731  0.00140642    -0.19700
H674        H  0.37376169  0.94241958  0.00005147     0.18100
H675        H  0.37365936  0.55601706  0.00162810     0.18100
F676        F  0.43594689  0.56336775  0.00064621    -0.19700
C677        C  0.12322803  0.53121758  0.99990113    -0.21100
C678        C  0.09110154  0.99893133  0.99784026    -0.09100
C679        C  0.09214154  0.96717197  0.99664213     0.29700
C680        C  0.12454499  0.96791020  0.99748560    -0.21100
C681        C  0.15666212  0.50017550  0.99954564    -0.09200
C682        C  0.15564242  0.53195549  0.00081205     0.29700
F683        F  0.18582498  0.56384220  0.00320830    -0.19700
H684        H  0.12337762  0.55609885  0.00101932     0.18100
H685        H  0.12438558  0.94302213  0.99647554     0.18100
F686        F  0.06195847  0.93526599  0.99470615    -0.19700
C687        C  0.03040158  0.52015058  0.85426682    -0.21100
C688        C  0.49851564  0.99961153  0.87547048    -0.09100
C689        C  0.46719133  0.97917141  0.85337777     0.29700
C690        C  0.46785849  0.97949566  0.81052272    -0.21100
C691        C  0.49981759  0.99989048  0.78896882    -0.09200
C692        C  0.03127681  0.52007391  0.81142152     0.29700
F693        F  0.06287649  0.53995309  0.79220782    -0.19700
H694        H  0.05484151  0.53589269  0.87102163     0.18100
H695        H  0.44320724  0.96370703  0.79420032     0.18100
F696        F  0.43581149  0.95979894  0.87323945    -0.19700
C697        C  0.27720466  0.75125352  0.47937036    -0.21100
C698        C  0.24899392  0.75064679  0.45802073    -0.09100
C699        C  0.22033528  0.74860296  0.48035905     0.29700
C700        C  0.21989013  0.74676395  0.52322317    -0.21100
C701        C  0.24829552  0.74772461  0.54460523    -0.09200
C702        C  0.27711373  0.75016521  0.52222527     0.29700
F703        F  0.30490823  0.75078035  0.54166896    -0.19700
H704        H  0.29956443  0.75285342  0.46281074     0.18100
H705        H  0.19748398  0.74508145  0.53975616     0.18100
F706        F  0.19231953  0.74742922  0.46078963    -0.19700
C707        C  0.25703536  0.72790931  0.18933355    -0.21100
C708        C  0.24731128  0.74973397  0.21088816    -0.09100
C709        C  0.23806568  0.77157560  0.18842879     0.29700
C710        C  0.23919825  0.77183310  0.14557114    -0.21100
C711        C  0.24873295  0.74988914  0.12431933    -0.09200
C712        C  0.25753172  0.72776856  0.14646428     0.29700
F713        F  0.26776700  0.70693731  0.12666606    -0.19700
H714        H  0.26433296  0.71084884  0.20568501     0.18100
H715        H  0.23217181  0.78894850  0.12884859     0.18100
F716        F  0.22840159  0.79308005  0.20766611    -0.19700
C717        C  0.27934763  0.49799132  0.48023509    -0.21100
C718        C  0.25252754  0.49986011  0.45851252    -0.09100
C719        C  0.22581658  0.00194086  0.48065579     0.29700
C720        C  0.22580580  0.00170575  0.52349411    -0.21100
C721        C  0.25274252  0.50019129  0.54518545    -0.09200
C722        C  0.27972150  0.49850000  0.52318858     0.29700
F723        F  0.30591199  0.49640314  0.54314508    -0.19700
H724        H  0.30025647  0.49647234  0.46393781     0.18100
H725        H  0.20482986  0.00311709  0.53978597     0.18100
F726        F  0.19921322  0.00347195  0.46099015    -0.19700
C727        C  0.24914118  0.97258675  0.14586024    -0.21100
C728        C  0.24818736  0.50012457  0.12470219    -0.09100
C729        C  0.24749607  0.52730431  0.14725018     0.29700
C730        C  0.24782427  0.52673894  0.19018302    -0.21100
C731        C  0.24952207  0.49951503  0.21133106    -0.09200
C732        C  0.25014495  0.97237095  0.18868396     0.29700
F733        F  0.25098579  0.94518507  0.20786941    -0.19700
H734        H  0.24966090  0.95136248  0.12913446     0.18100
H735        H  0.24718553  0.54788943  0.20692933     0.18100
F736        F  0.24572484  0.55395498  0.12790679    -0.19700
C737        C  0.47145812  0.74863760  0.47631839    -0.21100
C738        C  0.49930838  0.74813868  0.45504029    -0.09100
C739        C  0.02645222  0.74745844  0.47751144     0.29700
C740        C  0.02603533  0.74814403  0.52035380    -0.21100
C741        C  0.49826047  0.74872447  0.54163890    -0.09200
C742        C  0.47063112  0.74851314  0.51921571     0.29700
F743        F  0.44339665  0.74924077  0.53863047    -0.19700
H744        H  0.45011649  0.74895400  0.45964912     0.18100
H745        H  0.04748164  0.74801713  0.53700160     0.18100
F746        F  0.05395149  0.74720540  0.45816720    -0.19700
C747        C  0.40808001  0.62583342  0.33201119    -0.21100
C748        C  0.40783308  0.65794924  0.33214000    -0.09100
C749        C  0.37498224  0.65687703  0.33338749     0.29700
C750        C  0.34335079  0.62441302  0.33393663    -0.21100
C751        C  0.34362281  0.59230160  0.33355630    -0.09200
C752        C  0.37649112  0.59340359  0.33282853     0.29700
F753        F  0.37837982  0.56325736  0.33303127    -0.19700
H754        H  0.43282644  0.62568750  0.33135939     0.18100
H755        H  0.31858214  0.62450974  0.33473259     0.18100
F756        F  0.37318252  0.68706374  0.33428856    -0.19700
C757        C  0.12577454  0.84202986  0.33361749    -0.21100
C758        C  0.09360202  0.84225049  0.33329286    -0.09100
C759        C  0.09470839  0.87509705  0.33407622     0.29700
C760        C  0.12713267  0.90670032  0.33509082    -0.21100
C761        C  0.15930418  0.90654542  0.33530084    -0.09200
C762        C  0.15826288  0.87369671  0.33463313     0.29700
F763        F  0.18849576  0.87193660  0.33484070    -0.19700
H764        H  0.12589395  0.81727831  0.33310133     0.18100
H765        H  0.12693493  0.93141207  0.33556765     0.18100
F766        F  0.06453929  0.87695158  0.33375197    -0.19700
C767        C  0.00758047  0.72825348  0.18579791    -0.21100
C768        C  0.00086937  0.75197005  0.20794726    -0.09100
C769        C  0.49438490  0.77608916  0.18613777     0.32100
C770        C  0.49498447  0.77648603  0.14325386    -0.21100
C771        C  0.00126794  0.75248033  0.12135014    -0.09200
C772        C  0.00749629  0.72825169  0.14293075     0.29700
F773        F  0.01448058  0.70524667  0.12255902    -0.19700
H774        H  0.01267824  0.70940354  0.20170207     0.18100
H775        H  0.49001004  0.79530484  0.12705275     0.18100
F776        F  0.48794298  0.79963978  0.20608240    -0.19700
C777        C  0.47526381  0.50466850  0.47683823    -0.21100
C778        C  0.49976080  0.99844187  0.45557024    -0.09100
C779        C  0.02415196  0.99304049  0.47822122     0.29700
C780        C  0.02406782  0.99418684  0.52105188    -0.21100
C781        C  0.49936156  0.50002833  0.54214163    -0.09200
C782        C  0.47484713  0.50522238  0.51972661     0.29700
F783        F  0.45122163  0.51188207  0.53924088    -0.19700
H784        H  0.45623094  0.50899429  0.46023139     0.18100
H785        H  0.04313175  0.99003522  0.53786756     0.18100
F786        F  0.04855527  0.98731184  0.45912158    -0.19700
C787        C  0.37595126  0.90704923  0.32711534    -0.21100
C788        C  0.40772070  0.90633657  0.33129115    -0.09100
C789        C  0.40595858  0.87335214  0.33547077     0.29700
C790        C  0.37320155  0.84208418  0.33571255    -0.21100
C791        C  0.34141024  0.84279883  0.33189684    -0.09200
C792        C  0.34317306  0.87575160  0.32734873     0.29700
F793        F  0.31337679  0.87794095  0.32284264    -0.19700
H794        H  0.37636390  0.93192188  0.32361120     0.18100
H795        H  0.37281947  0.81722864  0.33925026     0.18100
F796        F  0.43573312  0.87108277  0.33976899    -0.19700
C797        C  0.09233771  0.62294426  0.33304314    -0.21100
C798        C  0.09311375  0.59106341  0.33349613    -0.09100
C799        C  0.12621383  0.59273887  0.33499168     0.29700
C800        C  0.15752302  0.62551550  0.33604900    -0.21100
C801        C  0.15671559  0.65739007  0.33549153    -0.09200
C802        C  0.12361726  0.65568916  0.33397223     0.29700
F803        F  0.12123150  0.68555253  0.33312698    -0.19700
H804        H  0.06739506  0.62266732  0.33184979     0.18100
H805        H  0.18249300  0.62584030  0.33713576     0.18100
F806        F  0.12856350  0.56284942  0.33541456    -0.19700
C807        C  0.99487250  0.96834369  0.14339348    -0.21100
C808        C  0.49982558  0.99851800  0.12201322    -0.09100
C809        C  0.50536685  0.52842637  0.14453207     0.29700
C810        C  0.50576064  0.52794232  0.18735595    -0.21100
C811        C  0.50125905  0.99800804  0.20861090    -0.09200
C812        C  0.99584655  0.96811525  0.18630496     0.29700
F813        F  0.99035355  0.93832917  0.20596386    -0.19700
H814        H  0.99046096  0.94491699  0.12686405     0.18100
H815        H  0.50988733  0.55121864  0.20402084     0.18100
F816        F  0.50970501  0.55795635  0.12532019    -0.19700
O817        O  0.97128509  0.43956147  0.33249610    -0.74200
O818        O  0.55953650  0.02739880  0.33198002    -0.74300
O819        O  0.51528900  0.48380810  0.39093994    -0.74300
O820        O  0.51539095  0.48271691  0.27337186    -0.74400
O821        O  0.98738082  0.01376947  0.27300089    -0.74300
O822        O  0.98491962  0.01244236  0.39042221    -0.74300
O823        O  0.52999374  0.05683234  0.33271654    -0.74200
O824        O  0.94219162  0.46942711  0.33067061    -0.74300
Ni825      Ni  0.51646079  0.48231968  0.33220839     1.25400
Ni826      Ni  0.98509742  0.01415304  0.33166762     1.25400
C827        C  0.94210226  0.44001367  0.33147394     0.88000
C828        C  0.55932178  0.05671416  0.33264337     0.87900
C829        C  0.99998468  0.49816518  0.41012122     0.87900
C830        C  0.50136658  0.49810364  0.25384899     0.88100
O831        O  0.97107476  0.19162610  0.33125226    -0.74200
O832        O  0.55933748  0.27896203  0.33115618    -0.74300
O833        O  0.51535696  0.23489618  0.38993776    -0.74300
O834        O  0.51488725  0.23569748  0.27230931    -0.74400
O835        O  0.98650798  0.26630385  0.27340177    -0.74300
O836        O  0.98513875  0.26372744  0.39072334    -0.74300
O837        O  0.53012117  0.30869677  0.33307150    -0.74200
O838        O  0.94183147  0.22136316  0.33123785    -0.74300
Ni839      Ni  0.51620561  0.23422616  0.33109254     1.25400
Ni840      Ni  0.98489923  0.26610280  0.33210927     1.25400
C841        C  0.94184610  0.19198694  0.33143946     0.88000
C842        C  0.55936042  0.30835135  0.33240866     0.87900
C843        C  0.50002008  0.24893878  0.40971154     0.87900
C844        C  0.50076530  0.25132745  0.25340891     0.88100
O845        O  0.78032020  0.05816453  0.33519537    -0.74200
O846        O  0.69291682  0.46986624  0.33551321    -0.74300
O847        O  0.73685988  0.01372360  0.39397552    -0.74300
O848        O  0.73623693  0.01464061  0.27668623    -0.74400
O849        O  0.76506608  0.48443436  0.27555884    -0.74300
O850        O  0.76771548  0.48556645  0.39335043    -0.74300
O851        O  0.72277584  0.44075035  0.33563093    -0.74200
O852        O  0.81007570  0.02896439  0.33316943    -0.74300
Ni853      Ni  0.73552179  0.01511049  0.33540039     1.25400
Ni854      Ni  0.76748725  0.48388945  0.33438938     1.25400
C855        C  0.80971945  0.05815580  0.33400240     0.88000
C856        C  0.69333848  0.44066075  0.33560405     0.87900
C857        C  0.75242769  0.99970818  0.41308846     0.87900
C858        C  0.75032790  0.99949838  0.25671476     0.88100
O859        O  0.76220212  0.23497535  0.27563532    -0.74200
O860        O  0.76471243  0.23712266  0.39313690    -0.74300
O861        O  0.71985683  0.19199023  0.33597912    -0.74300
O862        O  0.80717423  0.27979036  0.33268062    -0.74400
O863        O  0.77774399  0.30933660  0.33402567    -0.74300
O864        O  0.68990572  0.22100805  0.33526369    -0.74300
O865        O  0.73386297  0.26531638  0.39349315    -0.74200
O866        O  0.73331596  0.26507736  0.27604561    -0.74300
Ni867      Ni  0.76453147  0.23495208  0.33436844     1.25400
Ni868      Ni  0.73265704  0.26626283  0.33475270     1.25400
C869        C  0.74754735  0.24990760  0.25638026     0.88000
C870        C  0.74927253  0.25116503  0.41269535     0.87900
C871        C  0.69039716  0.19183503  0.33572027     0.87900
C872        C  0.80705244  0.30909018  0.33284976     0.88100
O873        O  0.52765145  0.46944813  0.99689916    -0.74200
O874        O  0.93998152  0.46984338  0.99979227    -0.74300
O875        O  0.98273574  0.46982065  0.93965415    -0.74300
O876        O  0.98467961  0.46921374  0.05708624    -0.74400
O877        O  0.51338253  0.02818301  0.05723328    -0.74300
O878        O  0.51395989  0.02887468  0.93984432    -0.74300
O879        O  0.96977967  0.02878182  0.99872892    -0.74200
O880        O  0.55734063  0.02837785  0.99840149    -0.74300
Ni881      Ni  0.98270349  0.46746971  0.99833062     1.25400
Ni882      Ni  0.51463491  0.03064438  0.99855175     1.25400
C883        C  0.55702427  0.49884954  0.99759054     0.88000
C884        C  0.94037380  0.49943717  0.99952900     0.87900
C885        C  0.99828427  0.49942801  0.92050495     0.87900
C886        C  0.99922977  0.49864134  0.07658701     0.88100
O887        O  0.56011887  0.28283668  0.99907937    -0.74200
O888        O  0.97212699  0.28266516  0.99781500    -0.74300
O889        O  0.51511621  0.28247276  0.05710264    -0.74300
O890        O  0.51738658  0.28320015  0.93956346    -0.74400
O891        O  0.98604767  0.22413550  0.93941743    -0.74300
O892        O  0.98747835  0.22344675  0.05668278    -0.74300
O893        O  0.94280073  0.22371459  0.99934383    -0.74200
O894        O  0.53067114  0.22391793  0.99683770    -0.74300
Ni895      Ni  0.51722672  0.28492511  0.99837118     1.25400
Ni896      Ni  0.98569621  0.22171534  0.99803018     1.25400
C897        C  0.55995428  0.25337401  0.99789349     0.88000
C898        C  0.94288457  0.25314511  0.99908110     0.87900
C899        C  0.50129718  0.25282445  0.07619173     0.87900
C900        C  0.00191713  0.25371218  0.92025612     0.88100
O901        O  0.72004605  0.02953103  0.00002546    -0.74200
O902        O  0.80747553  0.02868857  0.00201302    -0.74300
O903        O  0.76447005  0.02881326  0.94244123    -0.74300
O904        O  0.76287295  0.02958765  0.05982740    -0.74400
O905        O  0.73389419  0.47056049  0.06019756    -0.74300
O906        O  0.73429324  0.46987042  0.94270978    -0.74300
O907        O  0.77766521  0.46975030  0.00171938    -0.74200
O908        O  0.69031708  0.47059158  0.00106976    -0.74300
Ni909      Ni  0.76480058  0.03125258  0.00106964     1.25400
Ni910      Ni  0.73295919  0.46809997  0.00147373     1.25400
C911        C  0.69067688  0.00016042  0.00027696     0.88000
C912        C  0.80706917  0.99907354  0.00185251     0.87900
C913        C  0.74956289  0.99931480  0.92312454     0.87900
C914        C  0.74819309  0.00015111  0.07938445     0.88100
O915        O  0.72121332  0.28065106  0.00022576    -0.74200
O916        O  0.80896692  0.28054962  0.00282735    -0.74300
O917        O  0.76655103  0.28128712  0.94281078    -0.74300
O918        O  0.76349565  0.28001289  0.06026248    -0.74400
O919        O  0.73587415  0.22097882  0.05961665    -0.74300
O920        O  0.73532101  0.22228562  0.94229884    -0.74300
O921        O  0.77952711  0.22164770  0.00015821    -0.74200
O922        O  0.69170880  0.22171299  0.00156804    -0.74300
Ni923      Ni  0.76613934  0.28273714  0.00157695     1.25400
Ni924      Ni  0.73456693  0.21955410  0.00089899     1.25400
C925        C  0.69190203  0.25119160  0.00058675     0.88000
C926        C  0.80880258  0.25108092  0.00155838     0.87900
C927        C  0.75092628  0.25194316  0.92321924     0.87900
C928        C  0.74946252  0.25029990  0.07921576     0.88100
O929        O  0.52858130  0.47078563  0.66543283    -0.74200
O930        O  0.52946805  0.05911577  0.66480384    -0.74300
O931        O  0.52926305  0.01521016  0.72380724    -0.74300
O932        O  0.52893618  0.01443846  0.60642363    -0.74400
O933        O  0.96988491  0.48660838  0.60684036    -0.74300
O934        O  0.97029544  0.48533240  0.72426734    -0.74300
O935        O  0.97051496  0.02997642  0.66633801    -0.74200
O936        O  0.96961916  0.44179523  0.66471012    -0.74300
Ni937      Ni  0.53117220  0.01595535  0.66510373     1.25400
Ni938      Ni  0.96799123  0.48490115  0.66557361     1.25400
C939        C  0.99894171  0.44165184  0.66498839     0.88000
C940        C  0.00005883  0.05914585  0.66545916     0.87900
C941        C  0.99984455  0.00016304  0.74349221     0.87900
C942        C  0.99936784  0.00048955  0.58732022     0.88100
O943        O  0.53031303  0.22203330  0.66429280    -0.74200
O944        O  0.52946461  0.30935783  0.66404996    -0.74300
O945        O  0.53119198  0.26644645  0.72286343    -0.74300
O946        O  0.52861291  0.26470064  0.60548462    -0.74400
O947        O  0.96957930  0.23571494  0.60712004    -0.74300
O948        O  0.97224795  0.23629531  0.72459538    -0.74300
O949        O  0.97052518  0.27975120  0.66636351    -0.74200
O950        O  0.97135072  0.19227132  0.66537745    -0.74300
Ni951      Ni  0.53197033  0.26672207  0.66408885     1.25400
Ni952      Ni  0.96881342  0.23493977  0.66595040     1.25400
C953        C  0.00096824  0.19266017  0.66476833     0.88000
C954        C  0.99994377  0.30909535  0.66530341     0.87900
C955        C  0.00210734  0.25152312  0.74320519     0.87900
C956        C  0.99875301  0.24983775  0.58693487     0.88100
O957        O  0.72175406  0.02840020  0.67001545    -0.74200
O958        O  0.72132275  0.44066180  0.66680186    -0.74300
O959        O  0.72119356  0.48302513  0.72706639    -0.74300
O960        O  0.72246132  0.48614292  0.60954623    -0.74400
O961        O  0.78148431  0.01407284  0.61016637    -0.74300
O962        O  0.78031469  0.01401388  0.72742774    -0.74300
O963        O  0.78026577  0.46973932  0.66885712    -0.74200
O964        O  0.78071046  0.05807927  0.66893091    -0.74300
Ni965      Ni  0.71959946  0.48354902  0.66831618     1.25400
Ni966      Ni  0.78282499  0.01503798  0.66884920     1.25400
C967        C  0.75110074  0.05775310  0.67002068     0.88000
C968        C  0.75063189  0.44056735  0.66752317     0.87900
C969        C  0.75063545  0.99832652  0.74641559     0.87900
C970        C  0.75222189  0.00012713  0.59049121     0.88100
O971        O  0.71961019  0.18934671  0.66915622    -0.74200
O972        O  0.71786470  0.27650345  0.66753350    -0.74300
O973        O  0.71852819  0.23250005  0.60944222    -0.74300
O974        O  0.71875719  0.23350906  0.72699812    -0.74400
O975        O  0.77774888  0.26469437  0.72658070    -0.74300
O976        O  0.77755645  0.26164006  0.60930719    -0.74300
O977        O  0.77682514  0.30638307  0.66609265    -0.74200
O978        O  0.77855142  0.21970700  0.66991590    -0.74300
Ni979      Ni  0.71654523  0.23182041  0.66827835     1.25400
Ni980      Ni  0.77972008  0.26413055  0.66793886     1.25400
C981        C  0.74943005  0.19012755  0.67014684     0.88000
C982        C  0.74721732  0.30592910  0.66648451     0.87900
C983        C  0.74808862  0.24708868  0.58997437     0.87900
C984        C  0.74828733  0.24951132  0.74617110     0.88100
C985        C  0.78001939  0.37196475  0.66481688    -0.21100
C986        C  0.74745397  0.34006124  0.66601733    -0.09100
C987        C  0.71592475  0.34155973  0.66725884     0.29700
C988        C  0.71725859  0.37428114  0.66764879    -0.21100
C989        C  0.74990344  0.40618872  0.66680033    -0.09200
C990        C  0.78135132  0.40461322  0.66521491     0.29700
F991        F  0.81354116  0.43450975  0.66400038    -0.19700
H992        H  0.80475023  0.37179608  0.66371627     0.18100
H993        H  0.69257667  0.37454504  0.66879506     0.18100
F994        F  0.68376426  0.31158903  0.66829775    -0.19700
C995        C  0.78253029  0.12411542  0.67081228    -0.21100
C996        C  0.75061511  0.09159387  0.67121922    -0.09100
C997        C  0.71841379  0.09191288  0.67255376     0.29700
C998        C  0.71835560  0.12393858  0.67258550    -0.21100
C999        C  0.75022674  0.15645304  0.67136417    -0.09200
C1000       C  0.78246488  0.15618056  0.67091665     0.29700
F1001       F  0.81406601  0.18679651  0.67018998    -0.19700
H1002       H  0.80770342  0.12483379  0.67010749     0.18100
H1003       H  0.69315702  0.12316956  0.67330349     0.18100
F1004       F  0.68677131  0.06135000  0.67356727    -0.19700
C1005       C  0.53083985  0.40745038  0.66885288    -0.21100
C1006       C  0.99877649  0.40753261  0.66495147    -0.09100
C1007       C  0.96708281  0.37488874  0.66107307     0.29700
C1008       C  0.96768101  0.34310946  0.66152915    -0.21100
C1009       C  0.99979037  0.34306787  0.66537985    -0.09200
C1010       C  0.53147579  0.37573937  0.66894525     0.29700
F1011       F  0.56322579  0.37728836  0.67271705    -0.19700
H1012       H  0.55564928  0.43203127  0.67188815     0.18100
H1013       H  0.94291032  0.31849553  0.65844335     0.18100
F1014       F  0.93546650  0.37347721  0.65634371    -0.19700
C1015       C  0.96903905  0.12656252  0.66169107    -0.21100
C1016       C  0.00115037  0.15871370  0.66465213    -0.09100
C1017       C  0.53294971  0.15779677  0.66763987     0.29700
C1018       C  0.53235514  0.12542502  0.66780810    -0.21100
C1019       C  0.00019075  0.09326125  0.66508439    -0.09200
C1020       C  0.96843714  0.09423124  0.66189912     0.29700
F1021       F  0.93664663  0.06403160  0.65875084    -0.19700
H1022       H  0.94417318  0.12632259  0.65915609     0.18100
H1023       H  0.55719752  0.12561405  0.67030347     0.18100
F1024       F  0.56470328  0.18804797  0.67078726    -0.19700
C1025       C  0.77779519  0.27746499  0.81230111    -0.21100
C1026       C  0.74852549  0.25049603  0.79149299    -0.09100
C1027       C  0.71998441  0.22443886  0.81443987     0.29700
C1028       C  0.72115483  0.22510484  0.85724071    -0.21100
C1029       C  0.75035700  0.25204836  0.87799857    -0.09200
C1030       C  0.77863109  0.27850313  0.85517495     0.29700
F1031       F  0.80750492  0.30472183  0.87420923    -0.19700
H1032       H  0.80004675  0.29790322  0.79533997     0.18100
H1033       H  0.69899367  0.20458757  0.87424788     0.18100
F1034       F  0.69131823  0.19776542  0.79563929    -0.19700
C1035       C  0.73856288  0.46731269  0.85621229    -0.21100
C1036       C  0.75000800  0.99922792  0.87766232    -0.09100
C1037       C  0.76182507  0.03081725  0.85511606     0.29700
C1038       C  0.76224536  0.03026487  0.81230062    -0.21100
C1039       C  0.75046007  0.99836822  0.79128402    -0.09200
C1040       C  0.73870646  0.46684820  0.81333050     0.29700
F1041       F  0.72818825  0.43585669  0.79334531    -0.19700
H1042       H  0.72961931  0.44263032  0.87263033     0.18100
H1043       H  0.77131447  0.05477175  0.79540981     0.18100
F1044       F  0.77250308  0.06220056  0.87421796    -0.19700
C1045       C  0.87676044  0.22081127  0.99493236    -0.21100
C1046       C  0.90869092  0.25282235  0.00032922    -0.09100
C1047       C  0.90732783  0.28402782  0.00710409     0.29700
C1048       C  0.87481996  0.28313555  0.00758494    -0.21100
C1049       C  0.84291676  0.25121007  0.00161595    -0.09200
C1050       C  0.84424025  0.21988783  0.99555811     0.29700
F1051       F  0.81426121  0.18831860  0.98972822    -0.19700
H1052       H  0.87688061  0.19634586  0.98983688     0.18100
H1053       H  0.87470702  0.30759245  0.01277109     0.18100
F1054       F  0.93727167  0.31543858  0.01377484    -0.19700
C1055       C  0.59351874  0.22072918  0.99995945    -0.21100
C1056       C  0.59386731  0.25311789  0.99800668    -0.09100
C1057       C  0.62675759  0.28476528  0.99656245     0.29700
C1058       C  0.65832154  0.28380427  0.99738694    -0.21100
C1059       C  0.65797895  0.25142808  0.99967289    -0.09200
C1060       C  0.62507863  0.21976753  0.00085517     0.29700
F1061       F  0.62315179  0.18776379  0.00310010    -0.19700
H1062       H  0.56870997  0.19592436  0.00109660     0.18100
H1063       H  0.68312717  0.30860903  0.99624327     0.18100
F1064       F  0.62866105  0.31675593  0.99427017    -0.19700
C1065       C  0.53436117  0.27083551  0.85367803    -0.21100
C1066       C  0.00221664  0.25359775  0.87523983    -0.09100
C1067       C  0.97036320  0.23532085  0.85356338     0.29700
C1068       C  0.97062879  0.23484973  0.81075673    -0.21100
C1069       C  0.00272274  0.25199584  0.78872952    -0.09200
C1070       C  0.53480204  0.26964398  0.81077947     0.29700
F1071       F  0.56657578  0.28555188  0.79114901    -0.19700
H1072       H  0.55922066  0.28458042  0.87018709     0.18100
H1073       H  0.94549991  0.22093459  0.79484719     0.18100
F1074       F  0.93892428  0.21861143  0.87385835    -0.19700
C1075       C  0.87411541  0.46741529  0.00040858    -0.21100
C1076       C  0.90639810  0.49960201  0.00018739    -0.09100
C1077       C  0.90561085  0.03152666  0.00069292     0.29700
C1078       C  0.87330167  0.03102525  0.00132769    -0.21100
C1079       C  0.84102035  0.99885209  0.00155096    -0.09200
C1080       C  0.84179802  0.46691093  0.00112644     0.29700
F1081       F  0.81145614  0.43505912  0.00139521    -0.19700
H1082       H  0.87376308  0.44242220  0.00004148     0.18100
H1083       H  0.87366221  0.05602173  0.00162322     0.18100
F1084       F  0.93595016  0.06337325  0.00064059    -0.19700
C1085       C  0.62322785  0.03121715  0.99989366    -0.21100
C1086       C  0.59109881  0.49892770  0.99784239    -0.09100
C1087       C  0.59213979  0.46716899  0.99663767     0.29700
C1088       C  0.62454362  0.46790791  0.99748206    -0.21100
C1089       C  0.65666285  0.00017591  0.99954419    -0.09200
C1090       C  0.65564261  0.03195576  0.00080442     0.29700
F1091       F  0.68582504  0.06384313  0.00319410    -0.19700
H1092       H  0.62337711  0.05609832  0.00100730     0.18100
H1093       H  0.62438501  0.44302046  0.99646667     0.18100
F1094       F  0.56195736  0.43526303  0.99469330    -0.19700
C1095       C  0.53039923  0.02014796  0.85426693    -0.21100
C1096       C  0.99851761  0.49961561  0.87547028    -0.09100
C1097       C  0.96719284  0.47917786  0.85337751     0.29700
C1098       C  0.96786012  0.47950202  0.81052250    -0.21100
C1099       C  0.99981965  0.49989473  0.78896860    -0.09200
C1100       C  0.53127450  0.02007099  0.81142170     0.29700
F1101       F  0.56287396  0.03995131  0.79220798    -0.19700
H1102       H  0.55483898  0.03589152  0.87102172     0.18100
H1103       H  0.94320840  0.46371474  0.79420000     0.18100
F1104       F  0.93581254  0.45980786  0.87323913    -0.19700
C1105       C  0.77720643  0.25125238  0.47937075    -0.21100
C1106       C  0.74899512  0.25064482  0.45802149    -0.09100
C1107       C  0.72033718  0.24860202  0.48036036     0.29700
C1108       C  0.71989330  0.24676478  0.52322445    -0.21100
C1109       C  0.74829912  0.24772619  0.54460617    -0.09200
C1110       C  0.77711674  0.25016582  0.52222577     0.29700
F1111       F  0.80491164  0.25078154  0.54166917    -0.19700
H1112       H  0.79956598  0.25285170  0.46281055     0.18100
H1113       H  0.69748733  0.24508291  0.53975788     0.18100
F1114       F  0.69232094  0.24742769  0.46079150    -0.19700
C1115       C  0.75703918  0.22791336  0.18933390    -0.21100
C1116       C  0.74731280  0.24973607  0.21088885    -0.09100
C1117       C  0.73806556  0.27157665  0.18842981     0.29700
C1118       C  0.73919846  0.27183470  0.14557212    -0.21100
C1119       C  0.74873507  0.24989231  0.12432010    -0.09200
C1120       C  0.75753584  0.22777312  0.14646474     0.29700
F1121       F  0.76777295  0.20694345  0.12666625    -0.19700
H1122       H  0.76433822  0.21085377  0.20568508     0.18100
H1123       H  0.73217046  0.28894908  0.12884963     0.18100
F1124       F  0.72839922  0.29307923  0.20766748    -0.19700
C1125       C  0.77934424  0.99799214  0.48023460    -0.21100
C1126       C  0.75252264  0.99985845  0.45851245    -0.09100
C1127       C  0.72580844  0.50192904  0.48065391     0.29700
C1128       C  0.72579807  0.50169446  0.52349227    -0.21100
C1129       C  0.75273735  0.00018775  0.54518530    -0.09200
C1130       C  0.77971789  0.99849970  0.52318798     0.29700
F1131       F  0.80590985  0.99640506  0.54314389    -0.19700
H1132       H  0.80025457  0.99647594  0.46393695     0.18100
H1133       H  0.70481921  0.50310064  0.53978422     0.18100
F1134       F  0.69920063  0.50345164  0.46098792    -0.19700
C1135       C  0.74913924  0.47258186  0.14585984    -0.21100
C1136       C  0.74819117  0.00012788  0.12470248    -0.09100
C1137       C  0.74750180  0.02730858  0.14725051     0.29700
C1138       C  0.74782987  0.02674309  0.19018325    -0.21100
C1139       C  0.74952548  0.99951807  0.21133129    -0.09200
C1140       C  0.75014294  0.47236589  0.18868361     0.29700
F1141       F  0.75098054  0.44517840  0.20786936    -0.19700
H1142       H  0.74965697  0.45135630  0.12913374     0.18100
H1143       H  0.74719232  0.04789438  0.20692974     0.18100
F1144       F  0.74573220  0.05396018  0.12790726    -0.19700
C1145       C  0.97145654  0.24863649  0.47631742    -0.21100
C1146       C  0.99930795  0.24813964  0.45503949    -0.09100
C1147       C  0.52645062  0.24745560  0.47751168     0.29700
C1148       C  0.52603354  0.24814133  0.52035401    -0.21100
C1149       C  0.99825857  0.24872334  0.54163836    -0.09200
C1150       C  0.97062875  0.24851082  0.51921483     0.29700
F1151       F  0.94339290  0.24923600  0.53862933    -0.19700
H1152       H  0.95011465  0.24895200  0.45964803     0.18100
H1153       H  0.54747925  0.24801339  0.53700215     0.18100
F1154       F  0.55394933  0.24720122  0.45816776    -0.19700
C1155       C  0.90807778  0.12583509  0.33201034    -0.21100
C1156       C  0.90783120  0.15795103  0.33214188    -0.09100
C1157       C  0.87498050  0.15687904  0.33339341     0.29700
C1158       C  0.84334885  0.12441503  0.33394320    -0.21100
C1159       C  0.84362069  0.09230349  0.33355965    -0.09200
C1160       C  0.87648890  0.09340539  0.33282847     0.29700
F1161       F  0.87837753  0.06325912  0.33302815    -0.19700
H1162       H  0.93282426  0.12568893  0.33135552     0.18100
H1163       H  0.81858034  0.12451181  0.33474210     0.18100
F1164       F  0.87318117  0.18706592  0.33429795    -0.19700
C1165       C  0.62577421  0.34202861  0.33361295    -0.21100
C1166       C  0.59360184  0.34224954  0.33329489    -0.09100
C1167       C  0.59470817  0.37509596  0.33408530     0.29700
C1168       C  0.62713252  0.40669895  0.33509821    -0.21100
C1169       C  0.65930392  0.40654381  0.33530094    -0.09200
C1170       C  0.65826257  0.37369518  0.33462814     0.29700
F1171       F  0.68849539  0.37193491  0.33483015    -0.19700
H1172       H  0.62589351  0.31727709  0.33309191     0.18100
H1173       H  0.62693491  0.43141094  0.33558023     0.18100
F1174       F  0.56453899  0.37695052  0.33377064    -0.19700
C1175       C  0.50758707  0.22825810  0.18579822    -0.21100
C1176       C  0.50087176  0.25197183  0.20794752    -0.09100
C1177       C  0.99439330  0.27609472  0.18613672     0.32100
C1178       C  0.99499230  0.27649074  0.14325284    -0.21100
C1179       C  0.50127178  0.25248293  0.12135048    -0.09200
C1180       C  0.50750354  0.22825664  0.14293111     0.29700
F1181       F  0.51449137  0.20525406  0.12255945    -0.19700
H1182       H  0.51268749  0.20940990  0.20170241     0.18100
H1183       H  0.99002625  0.29531513  0.12705160     0.18100
F1184       F  0.98796335  0.29965350  0.20608121    -0.19700
C1185       C  0.97526548  0.00467024  0.47683784    -0.21100
C1186       C  0.99976107  0.49843916  0.45556970    -0.09100
C1187       C  0.52415202  0.49304143  0.47822198     0.29700
C1188       C  0.52406808  0.49418829  0.52105267    -0.21100
C1189       C  0.99936208  0.00002793  0.54214097    -0.09200
C1190       C  0.97484882  0.00522391  0.51972616     0.29700
F1191       F  0.95122465  0.01188541  0.53924061    -0.19700
H1192       H  0.95623338  0.00899732  0.46023113     0.18100
H1193       H  0.54313254  0.49003787  0.53786830     0.18100
F1194       F  0.54855596  0.48731360  0.45912254    -0.19700
C1195       C  0.87595074  0.40704878  0.32711888    -0.21100
C1196       C  0.90772067  0.40633644  0.33129051    -0.09100
C1197       C  0.90595907  0.37335194  0.33546646     0.29700
C1198       C  0.87320216  0.34208379  0.33570944    -0.21100
C1199       C  0.84141040  0.34279808  0.33189804    -0.09200
C1200       C  0.84317268  0.37575089  0.32735292     0.29700
F1201       F  0.81337597  0.37793996  0.32285023    -0.19700
H1202       H  0.87636289  0.43192146  0.32361745     0.18100
H1203       H  0.87282057  0.31722797  0.33924434     0.18100
F1204       F  0.93573409  0.37108271  0.33975947    -0.19700
C1205       C  0.59233780  0.12294351  0.33303908    -0.21100
C1206       C  0.59311367  0.09106260  0.33349320    -0.09100
C1207       C  0.62621362  0.09273780  0.33498838     0.29700
C1208       C  0.65752292  0.12551431  0.33604558    -0.21100
C1209       C  0.65671567  0.15738896  0.33548822    -0.09200
C1210       C  0.62361746  0.15568828  0.33396782     0.29700
F1211       F  0.62123187  0.18555173  0.33312133    -0.19700
H1212       H  0.56739532  0.12266671  0.33184537     0.18100
H1213       H  0.68249280  0.12583895  0.33713255     0.18100
F1214       F  0.62856305  0.06284820  0.33541127    -0.19700
C1215       C  0.49487705  0.46834273  0.14339426    -0.21100
C1216       C  0.99982543  0.49851978  0.12201322    -0.09100
C1217       C  0.00537525  0.02843190  0.14453220     0.29700
C1218       C  0.00576729  0.02794661  0.18735615    -0.21100
C1219       C  0.00125854  0.49800966  0.20861087    -0.09200
C1220       C  0.49585289  0.46811561  0.18630572     0.29700
F1221       F  0.49036732  0.43833226  0.20596496    -0.19700
H1222       H  0.49047026  0.44491777  0.12686522     0.18100
H1223       H  0.00989852  0.05122441  0.20402166     0.18100
F1224       F  0.00972082  0.05796492  0.12532088    -0.19700
O1225       O  0.97128531  0.93956124  0.33249702    -0.74200
O1226       O  0.55953704  0.52739917  0.33198122    -0.74300
O1227       O  0.51528871  0.98380885  0.39093982    -0.74300
O1228       O  0.51538975  0.98271617  0.27337158    -0.74400
O1229       O  0.98738077  0.51376988  0.27300085    -0.74300
O1230       O  0.98491998  0.51244235  0.39042226    -0.74300
O1231       O  0.52999386  0.55683227  0.33271858    -0.74200
O1232       O  0.94219174  0.96942677  0.33067085    -0.74300
Ni1233     Ni  0.51646006  0.98231960  0.33220819     1.25400
Ni1234     Ni  0.98509756  0.51415332  0.33166759     1.25400
C1235       C  0.94210248  0.94001340  0.33147482     0.88000
C1236       C  0.55932206  0.55671441  0.33264562     0.87900
C1237       C  0.99998447  0.99816552  0.41012146     0.87900
C1238       C  0.50136548  0.99810295  0.25384859     0.88100
O1239       O  0.97107635  0.69162564  0.33125188    -0.74200
O1240       O  0.55933787  0.77896140  0.33115729    -0.74300
O1241       O  0.51535681  0.73489560  0.38993866    -0.74300
O1242       O  0.51488775  0.73569714  0.27231013    -0.74400
O1243       O  0.98650799  0.76630396  0.27340200    -0.74300
O1244       O  0.98513764  0.76372596  0.39072343    -0.74300
O1245       O  0.53012158  0.80869618  0.33307135    -0.74200
O1246       O  0.94183179  0.72136142  0.33123690    -0.74300
Ni1247     Ni  0.51620566  0.73422559  0.33109346     1.25400
Ni1248     Ni  0.98489872  0.76610201  0.33210944     1.25400
C1249       C  0.94184724  0.69198556  0.33143831     0.88000
C1250       C  0.55936087  0.80835079  0.33240881     0.87900
C1251       C  0.50002061  0.74893892  0.40971236     0.87900
C1252       C  0.50076547  0.75132673  0.25340954     0.88100
O1253       O  0.78032209  0.55816253  0.33519373    -0.74200
O1254       O  0.69291596  0.96986692  0.33551188    -0.74300
O1255       O  0.73686245  0.51372283  0.39397518    -0.74300
O1256       O  0.73623669  0.51463828  0.27668619    -0.74400
O1257       O  0.76506671  0.98443708  0.27555967    -0.74300
O1258       O  0.76771439  0.98556876  0.39335128    -0.74300
O1259       O  0.72277594  0.94075202  0.33563115    -0.74200
O1260       O  0.81007688  0.52896168  0.33316788    -0.74300
Ni1261     Ni  0.73552319  0.51510914  0.33540025     1.25400
Ni1262     Ni  0.76748683  0.98389180  0.33439028     1.25400
C1263       C  0.80972110  0.55815335  0.33400049     0.88000
C1264       C  0.69333824  0.94066171  0.33560322     0.87900
C1265       C  0.75242936  0.49970636  0.41308783     0.87900
C1266       C  0.75032660  0.49949522  0.25671439     0.88100
O1267       O  0.76220264  0.73497527  0.27563591    -0.74200
O1268       O  0.76471244  0.73712362  0.39313769    -0.74300
O1269       O  0.71985705  0.69199075  0.33598026    -0.74300
O1270       O  0.80717447  0.77979063  0.33268130    -0.74400
O1271       O  0.77774433  0.80933698  0.33402550    -0.74300
O1272       O  0.68990599  0.72100862  0.33526416    -0.74300
O1273       O  0.73386312  0.76531748  0.39349313    -0.74200
O1274       O  0.73331651  0.76507729  0.27604550    -0.74300
Ni1275     Ni  0.76453172  0.73495249  0.33436923     1.25400
Ni1276     Ni  0.73265737  0.76626333  0.33475263     1.25400
C1277       C  0.74754797  0.74990742  0.25638045     0.88000
C1278       C  0.74927249  0.75116614  0.41269574     0.87900
C1279       C  0.69039740  0.69183559  0.33572168     0.87900
C1280       C  0.80705272  0.80909045  0.33285032     0.88100
O1281       O  0.52765297  0.96944905  0.99689933    -0.74200
O1282       O  0.93998346  0.96984656  0.99979334    -0.74300
O1283       O  0.98273628  0.96982291  0.93965398    -0.74300
O1284       O  0.98468191  0.96921599  0.05708588    -0.74400
O1285       O  0.51338179  0.52818264  0.05723385    -0.74300
O1286       O  0.51396005  0.52887529  0.93984508    -0.74300
O1287       O  0.96977707  0.52877864  0.99872798    -0.74200
O1288       O  0.55733984  0.52837691  0.99840250    -0.74300
Ni1289     Ni  0.98270494  0.96747207  0.99833035     1.25400
Ni1290     Ni  0.51463459  0.53064436  0.99855244     1.25400
C1291       C  0.55702556  0.99885073  0.99759018     0.88000
C1292       C  0.94037620  0.99944058  0.99953054     0.87900
C1293       C  0.99828488  0.99943017  0.92050463     0.87900
C1294       C  0.99923246  0.99864352  0.07658681     0.88100
O1295       O  0.56011880  0.78283598  0.99907912    -0.74200
O1296       O  0.97212759  0.78266676  0.99781435    -0.74300
O1297       O  0.51511682  0.78247350  0.05710247    -0.74300
O1298       O  0.51738590  0.78319809  0.93956311    -0.74400
O1299       O  0.98605036  0.72413877  0.93941606    -0.74300
O1300       O  0.98747641  0.72344649  0.05668159    -0.74300
O1301       O  0.94280122  0.72371614  0.99934075    -0.74200
O1302       O  0.53067093  0.72391720  0.99683859    -0.74300
Ni1303     Ni  0.51722679  0.78492456  0.99837079     1.25400
Ni1304     Ni  0.98569655  0.72171674  0.99802879     1.25400
C1305       C  0.55995413  0.75337328  0.99789368     0.88000
C1306       C  0.94288511  0.75314669  0.99907877     0.87900
C1307       C  0.50129845  0.75282552  0.07619220     0.87900
C1308       C  0.00192056  0.75371603  0.92025593     0.88100
O1309       O  0.72004390  0.52952782  0.00002628    -0.74200
O1310       O  0.80747290  0.52868446  0.00201396    -0.74300
O1311       O  0.76446897  0.52881165  0.94244212    -0.74300
O1312       O  0.76286947  0.52958227  0.05982817    -0.74400
O1313       O  0.73389738  0.97056586  0.06019866    -0.74300
O1314       O  0.73429556  0.96987197  0.94271109    -0.74300
O1315       O  0.77766815  0.96975438  0.00172159    -0.74200
O1316       O  0.69031964  0.97059480  0.00107022    -0.74300
Ni1317     Ni  0.76479825  0.53124899  0.00107061     1.25400
Ni1318     Ni  0.73296195  0.96810355  0.00147508     1.25400
C1319       C  0.69067459  0.50015733  0.00027732     0.88000
C1320       C  0.80706633  0.49906932  0.00185139     0.87900
C1321       C  0.74956168  0.49931378  0.92312426     0.87900
C1322       C  0.74818923  0.50014530  0.07938429     0.88100
O1323       O  0.72121300  0.78065031  0.00022529    -0.74200
O1324       O  0.80896652  0.78054919  0.00282707    -0.74300
O1325       O  0.76655067  0.78128625  0.94281053    -0.74300
O1326       O  0.76349522  0.78001214  0.06026227    -0.74400
O1327       O  0.73587392  0.72097809  0.05961653    -0.74300
O1328       O  0.73532088  0.72228471  0.94229889    -0.74300
O1329       O  0.77952705  0.72164724  0.00015811    -0.74200
O1330       O  0.69170860  0.72171224  0.00156766    -0.74300
Ni1331     Ni  0.76613894  0.78273644  0.00157667     1.25400
Ni1332     Ni  0.73456675  0.71955337  0.00089889     1.25400
C1333       C  0.69190178  0.75119082  0.00058611     0.88000
C1334       C  0.80880239  0.75108061  0.00155789     0.87900
C1335       C  0.75092604  0.75194217  0.92321920     0.87900
C1336       C  0.74946230  0.75029917  0.07921561     0.88100
O1337       O  0.52858095  0.97078599  0.66543207    -0.74200
O1338       O  0.52946786  0.55911524  0.66480295    -0.74300
O1339       O  0.52926340  0.51521053  0.72380743    -0.74300
O1340       O  0.52893590  0.51443712  0.60642366    -0.74400
O1341       O  0.96988333  0.98660773  0.60684009    -0.74300
O1342       O  0.97029385  0.98533067  0.72426713    -0.74300
O1343       O  0.97051758  0.52997810  0.66633760    -0.74200
O1344       O  0.96961862  0.94179434  0.66470887    -0.74300
Ni1345     Ni  0.53117229  0.51595492  0.66510378     1.25400
Ni1346     Ni  0.96798960  0.98489981  0.66557332     1.25400
C1347       C  0.99894155  0.94165163  0.66498634     0.88000
C1348       C  0.00006167  0.55914725  0.66545875     0.87900
C1349       C  0.99984607  0.50016414  0.74349254     0.87900
C1350       C  0.99936932  0.50048953  0.58732034     0.88100
O1351       O  0.53031319  0.72203326  0.66429258    -0.74200
O1352       O  0.52946523  0.80935834  0.66405211    -0.74300
O1353       O  0.53119126  0.76644515  0.72286450    -0.74300
O1354       O  0.52861446  0.76470219  0.60548566    -0.74400
O1355       O  0.96958118  0.73571508  0.60712059    -0.74300
O1356       O  0.97225219  0.73629806  0.72459573    -0.74300
O1357       O  0.97052800  0.77975233  0.66636276    -0.74200
O1358       O  0.97135392  0.69227274  0.66537881    -0.74300
Ni1359     Ni  0.53197075  0.76672227  0.66408997     1.25400
Ni1360     Ni  0.96881647  0.73494109  0.66595091     1.25400
C1361       C  0.00097146  0.69266167  0.66476896     0.88000
C1362       C  0.99994646  0.80909652  0.66530132     0.87900
C1363       C  0.00211182  0.75152634  0.74320505     0.87900
C1364       C  0.99875458  0.74983805  0.58693484     0.88100
O1365       O  0.72175262  0.52839887  0.67001343    -0.74200
O1366       O  0.72132202  0.94066194  0.66680117    -0.74300
O1367       O  0.72119343  0.98302479  0.72706700    -0.74300
O1368       O  0.72246184  0.98614489  0.60954704    -0.74400
O1369       O  0.78148383  0.51407196  0.61016547    -0.74300
O1370       O  0.78031476  0.51401551  0.72742671    -0.74300
O1371       O  0.78026502  0.96973846  0.66885661    -0.74200
O1372       O  0.78070902  0.55807890  0.66892863    -0.74300
Ni1373     Ni  0.71959976  0.98354981  0.66831687     1.25400
Ni1374     Ni  0.78282470  0.51503833  0.66884822     1.25400
C1375       C  0.75109898  0.55775206  0.67001840     0.88000
C1376       C  0.75063086  0.94056682  0.66752197     0.87900
C1377       C  0.75063567  0.49832775  0.74641484     0.87900
C1378       C  0.75222138  0.50012522  0.59049037     0.88100
O1379       O  0.71960765  0.68934518  0.66915655    -0.74200
O1380       O  0.71786238  0.77650211  0.66753426    -0.74300
O1381       O  0.71852565  0.73249877  0.60944264    -0.74300
O1382       O  0.71875520  0.73350752  0.72699874    -0.74400
O1383       O  0.77774688  0.76469295  0.72658081    -0.74300
O1384       O  0.77755390  0.76163837  0.60930762    -0.74300
O1385       O  0.77682281  0.80638159  0.66609267    -0.74200
O1386       O  0.77854887  0.71970534  0.66991634    -0.74300
Ni1387     Ni  0.71654285  0.73181898  0.66827892     1.25400
Ni1388     Ni  0.77971770  0.76412898  0.66793912     1.25400
C1389       C  0.74942743  0.69012593  0.67014726     0.88000
C1390       C  0.74721502  0.80592773  0.66648450     0.87900
C1391       C  0.74808610  0.74708729  0.58997479     0.87900
C1392       C  0.74828550  0.74950973  0.74617145     0.88100
C1393       C  0.78001705  0.87196326  0.66480667    -0.21100
C1394       C  0.74745173  0.84005996  0.66601601    -0.09100
C1395       C  0.71592283  0.84155884  0.66726485     0.29700
C1396       C  0.71725700  0.87428046  0.66765449    -0.21100
C1397       C  0.74990183  0.90618786  0.66679810    -0.09200
C1398       C  0.78134926  0.90461191  0.66520398     0.29700
F1399       F  0.81353894  0.93450820  0.66397972    -0.19700
H1400       H  0.80474742  0.87179431  0.66369938     0.18100
H1401       H  0.69257532  0.87454472  0.66880725     0.18100
F1402       F  0.68376241  0.81158835  0.66831179    -0.19700
C1403       C  0.78252789  0.62411408  0.67081425    -0.21100
C1404       C  0.75061278  0.59159247  0.67121722    -0.09100
C1405       C  0.71841125  0.59191115  0.67254907     0.29700
C1406       C  0.71835284  0.62393678  0.67258193    -0.21100
C1407       C  0.75022408  0.65645139  0.67136437    -0.09200
C1408       C  0.78246229  0.65617907  0.67091989     0.29700
F1409       F  0.81406346  0.68679509  0.67019779    -0.19700
H1410       H  0.80770103  0.62483264  0.67011194     0.18100
H1411       H  0.69315451  0.62316763  0.67329758     0.18100
F1412       F  0.68676881  0.56134807  0.67355867    -0.19700
C1413       C  0.53083977  0.90745101  0.66885194    -0.21100
C1414       C  0.99877728  0.90753282  0.66494758    -0.09100
C1415       C  0.96708412  0.87488868  0.66106789     0.29700
C1416       C  0.96768298  0.84310974  0.66152435    -0.21100
C1417       C  0.99979263  0.84306881  0.66537575    -0.09200
C1418       C  0.53147609  0.87574021  0.66894521     0.29700
F1419       F  0.56322632  0.87728963  0.67271631    -0.19700
H1420       H  0.55564966  0.93203254  0.67188599     0.18100
H1421       H  0.94291260  0.81849557  0.65843836     0.18100
F1422       F  0.93546767  0.87347654  0.65633686    -0.19700
C1423       C  0.96904226  0.62656411  0.66169164    -0.21100
C1424       C  0.00115361  0.65871524  0.66465264    -0.09100
C1425       C  0.53294961  0.65779638  0.66763627     0.29700
C1426       C  0.53235495  0.62542456  0.66780500    -0.21100
C1427       C  0.00019391  0.59326278  0.66508409    -0.09200
C1428       C  0.96844031  0.59423284  0.66189929     0.29700
F1429       F  0.93664973  0.56403327  0.65875115    -0.19700
H1430       H  0.94417634  0.62632419  0.65915696     0.18100
H1431       H  0.55719718  0.62561356  0.67030033     0.18100
F1432       F  0.56470335  0.68804755  0.67078239    -0.19700
C1433       C  0.77779471  0.77746265  0.81230102    -0.21100
C1434       C  0.74852418  0.75049435  0.79149329    -0.09100
C1435       C  0.71998286  0.72443786  0.81444049     0.29700
C1436       C  0.72115372  0.72510400  0.85724127    -0.21100
C1437       C  0.75035658  0.75204704  0.87799869    -0.09200
C1438       C  0.77863104  0.77850100  0.85517481     0.29700
F1439       F  0.80750552  0.80471910  0.87420879    -0.19700
H1440       H  0.80004652  0.79790026  0.79533965     0.18100
H1441       H  0.69899232  0.70458737  0.87424876     0.18100
F1442       F  0.69131588  0.69776506  0.79564034    -0.19700
C1443       C  0.73857412  0.96731414  0.85621346    -0.21100
C1444       C  0.75000791  0.49922801  0.87766190    -0.09100
C1445       C  0.76183716  0.53081960  0.85511618     0.29700
C1446       C  0.76225777  0.53026756  0.81230069    -0.21100
C1447       C  0.75046059  0.49836931  0.79128340    -0.09200
C1448       C  0.73871753  0.96684916  0.81333160     0.29700
F1449       F  0.72821012  0.93585953  0.79334683    -0.19700
H1450       H  0.72963987  0.94263364  0.87263216     0.18100
H1451       H  0.77133630  0.55477633  0.79541024     0.18100
F1452       F  0.77252744  0.56220506  0.87421853    -0.19700
C1453       C  0.87676112  0.72081253  0.99492864    -0.21100
C1454       C  0.90869137  0.75282368  0.00032624    -0.09100
C1455       C  0.90732784  0.78402885  0.00710181     0.29700
C1456       C  0.87481970  0.78313588  0.00758377    -0.21100
C1457       C  0.84291675  0.75121030  0.00161452    -0.09200
C1458       C  0.84424071  0.71988852  0.99555487     0.29700
F1459       F  0.81426196  0.68831935  0.98972350    -0.19700
H1460       H  0.87688164  0.69634723  0.98983216     0.18100
H1461       H  0.87470636  0.80759293  0.01277092     0.18100
F1462       F  0.93727148  0.81543989  0.01377204    -0.19700
C1463       C  0.59351862  0.72072845  0.99995712    -0.21100
C1464       C  0.59386716  0.75311719  0.99800650    -0.09100
C1465       C  0.62675747  0.78476468  0.99656387     0.29700
C1466       C  0.65832136  0.78380359  0.99738800    -0.21100
C1467       C  0.65797877  0.75142735  0.99967199    -0.09200
C1468       C  0.62507845  0.71976674  0.00085235     0.29700
F1469       F  0.62315163  0.68776291  0.00309475    -0.19700
H1470       H  0.56870965  0.69592335  0.00109284     0.18100
H1471       H  0.68312724  0.80860866  0.99624578     0.18100
F1472       F  0.62866099  0.81675544  0.99427383    -0.19700
C1473       C  0.53435943  0.77083274  0.85367857    -0.21100
C1474       C  0.00222096  0.75360277  0.87523969    -0.09100
C1475       C  0.97036737  0.73532990  0.85356293     0.29700
C1476       C  0.97063320  0.73485829  0.81075639    -0.21100
C1477       C  0.00272745  0.75200027  0.78872941    -0.09200
C1478       C  0.53480047  0.76964126  0.81078012     0.29700
F1479       F  0.56657427  0.78554978  0.79114984    -0.19700
H1480       H  0.55921916  0.78457847  0.87018781     0.18100
H1481       H  0.94550414  0.72094601  0.79484674     0.18100
F1482       F  0.93892810  0.71862475  0.87385757    -0.19700
C1483       C  0.87411797  0.96741929  0.00041338    -0.21100
C1484       C  0.90640074  0.99960588  0.00019002    -0.09100
C1485       C  0.90560796  0.53152264  0.00069172     0.29700
C1486       C  0.87329872  0.53102098  0.00132680    -0.21100
C1487       C  0.84101748  0.49884780  0.00154868    -0.09200
C1488       C  0.84180073  0.96691514  0.00113121     0.29700
F1489       F  0.81145880  0.93506340  0.00140219    -0.19700
H1490       H  0.87376543  0.94242603  0.00004785     0.18100
H1491       H  0.87365917  0.55601761  0.00162383     0.18100
F1492       F  0.93594713  0.56336935  0.00064077    -0.19700
C1493       C  0.62322622  0.53121484  0.99990071    -0.21100
C1494       C  0.59110042  0.99892951  0.99784208    -0.09100
C1495       C  0.59214166  0.96717081  0.99664417     0.29700
C1496       C  0.62454571  0.96791023  0.99748832    -0.21100
C1497       C  0.65666074  0.50017315  0.99954472    -0.09200
C1498       C  0.65564071  0.53195294  0.00081161     0.29700
F1499       F  0.68582308  0.56383976  0.00320828    -0.19700
H1500       H  0.62337564  0.55609579  0.00101975     0.18100
H1501       H  0.62438720  0.94302257  0.99647844     0.18100
F1502       F  0.56195924  0.93526434  0.99470729    -0.19700
C1503       C  0.53039901  0.52014972  0.85426739    -0.21100
C1504       C  0.99851758  0.99961739  0.87546994    -0.09100
C1505       C  0.96719251  0.97917914  0.85337779     0.29700
C1506       C  0.96785925  0.97950226  0.81052277    -0.21100
C1507       C  0.99981852  0.99989448  0.78896824    -0.09200
C1508       C  0.53127455  0.52007283  0.81142217     0.29700
F1509       F  0.56287399  0.53995352  0.79220858    -0.19700
H1510       H  0.55483898  0.53589363  0.87102252     0.18100
H1511       H  0.94320738  0.96371462  0.79420078     0.18100
F1512       F  0.93581247  0.95980955  0.87324005    -0.19700
C1513       C  0.77720547  0.75125287  0.47937156    -0.21100
C1514       C  0.74899455  0.75064581  0.45802193    -0.09100
C1515       C  0.72033631  0.74860274  0.48036040     0.29700
C1516       C  0.71989156  0.74676447  0.52322452    -0.21100
C1517       C  0.74829697  0.74772526  0.54460658    -0.09200
C1518       C  0.77711496  0.75016536  0.52222656     0.29700
F1519       F  0.80490954  0.75078065  0.54167027    -0.19700
H1520       H  0.79956510  0.75285241  0.46281183     0.18100
H1521       H  0.69748555  0.74508239  0.53975753     0.18100
F1522       F  0.69232056  0.74742913  0.46079116    -0.19700
C1523       C  0.75703974  0.72791291  0.18933393    -0.21100
C1524       C  0.74731348  0.74973575  0.21088892    -0.09100
C1525       C  0.73806617  0.77157625  0.18842983     0.29700
C1526       C  0.73919875  0.77183411  0.14557213    -0.21100
C1527       C  0.74873514  0.74989160  0.12432003    -0.09200
C1528       C  0.75753605  0.72777248  0.14646466     0.29700
F1529       F  0.76777297  0.70694269  0.12666607    -0.19700
H1530       H  0.76433880  0.71085354  0.20568497     0.18100
H1531       H  0.73217067  0.78894842  0.12884972     0.18100
F1532       F  0.72840002  0.79307898  0.20766745    -0.19700
C1533       C  0.77934473  0.49798938  0.48023448    -0.21100
C1534       C  0.75252352  0.49985580  0.45851174    -0.09100
C1535       C  0.72580814  0.00193219  0.48065527     0.29700
C1536       C  0.72579842  0.00169773  0.52349367    -0.21100
C1537       C  0.75273693  0.50018490  0.54518451    -0.09200
C1538       C  0.77971783  0.49849692  0.52318784     0.29700
F1539       F  0.80590976  0.49640269  0.54314439    -0.19700
H1540       H  0.80025567  0.49647339  0.46393705     0.18100
H1541       H  0.70481980  0.00310405  0.53978615     0.18100
F1542       F  0.69920014  0.00345494  0.46098993    -0.19700
C1543       C  0.74914557  0.97258873  0.14585955    -0.21100
C1544       C  0.74818608  0.50012147  0.12470233    -0.09100
C1545       C  0.74749753  0.52730279  0.14724998     0.29700
C1546       C  0.74782663  0.52673824  0.19018265    -0.21100
C1547       C  0.74952207  0.49951334  0.21133105    -0.09200
C1548       C  0.75014865  0.97237206  0.18868332     0.29700
F1549       F  0.75098770  0.94518509  0.20786845    -0.19700
H1550       H  0.74966446  0.95136408  0.12913325     0.18100
H1551       H  0.74719026  0.54789028  0.20692873     0.18100
F1552       F  0.74572812  0.55395436  0.12790638    -0.19700
C1553       C  0.97145614  0.74863497  0.47631778    -0.21100
C1554       C  0.99930804  0.74813933  0.45503951    -0.09100
C1555       C  0.52645108  0.74745495  0.47751234     0.29700
C1556       C  0.52603459  0.74814148  0.52035468    -0.21100
C1557       C  0.99825955  0.74872357  0.54163836    -0.09200
C1558       C  0.97062892  0.74850985  0.51921523     0.29700
F1559       F  0.94339299  0.74923459  0.53863011    -0.19700
H1560       H  0.95011349  0.74894932  0.45964858     0.18100
H1561       H  0.54747971  0.74801236  0.53700278     0.18100
F1562       F  0.55394841  0.74719797  0.45816824    -0.19700
C1563       C  0.90807977  0.62583331  0.33201340    -0.21100
C1564       C  0.90783268  0.65794910  0.33213969    -0.09100
C1565       C  0.87498166  0.65687658  0.33338520     0.29700
C1566       C  0.84335023  0.62441242  0.33393485    -0.21100
C1567       C  0.84362247  0.59230104  0.33355711    -0.09200
C1568       C  0.87649092  0.59340331  0.33283147     0.29700
F1569       F  0.87837978  0.56325718  0.33303725    -0.19700
H1570       H  0.93282634  0.62568755  0.33136325     0.18100
H1571       H  0.81858174  0.62450899  0.33472908     0.18100
F1572       F  0.87318168  0.68706320  0.33428385    -0.19700
C1573       C  0.62577494  0.84202887  0.33361633    -0.21100
C1574       C  0.59360231  0.84224922  0.33329418    -0.09100
C1575       C  0.59470826  0.87509554  0.33407956     0.29700
C1576       C  0.62713233  0.90669884  0.33509233    -0.21100
C1577       C  0.65930398  0.90654431  0.33529961    -0.09200
C1578       C  0.65826312  0.87369581  0.33463116     0.29700
F1579       F  0.68849622  0.87193610  0.33483750    -0.19700
H1580       H  0.62589456  0.81727722  0.33309900     0.18100
H1581       H  0.62693428  0.93141072  0.33557058     0.18100
F1582       F  0.56453892  0.87694971  0.33375975    -0.19700
C1583       C  0.50760533  0.72827014  0.18579795    -0.21100
C1584       C  0.50087259  0.75197185  0.20794780    -0.09100
C1585       C  0.99440129  0.77610052  0.18613728     0.32100
C1586       C  0.99499923  0.77649583  0.14325340    -0.21100
C1587       C  0.50127401  0.75248460  0.12135069    -0.09200
C1588       C  0.50752262  0.72826954  0.14293078     0.29700
F1589       F  0.51452754  0.70527919  0.12255829    -0.19700
H1590       H  0.51271906  0.70943086  0.20170153     0.18100
H1591       H  0.99004072  0.79532567  0.12705230     0.18100
F1592       F  0.98798190  0.79966628  0.20608221    -0.19700
C1593       C  0.97526569  0.50466908  0.47683802    -0.21100
C1594       C  0.99976076  0.99843990  0.45556987    -0.09100
C1595       C  0.52414906  0.99303827  0.47822212     0.29700
C1596       C  0.52406513  0.99418523  0.52105279    -0.21100
C1597       C  0.99936315  0.50002745  0.54214094    -0.09200
C1598       C  0.97484924  0.50522262  0.51972636     0.29700
F1599       F  0.95122441  0.51188302  0.53924104    -0.19700
H1600       H  0.95623323  0.50899582  0.46023157     0.18100
H1601       H  0.54312649  0.99003011  0.53786869     0.18100
F1602       F  0.54854930  0.98730461  0.45912309    -0.19700
C1603       C  0.87595106  0.90704891  0.32712218    -0.21100
C1604       C  0.90772095  0.90633628  0.33129204    -0.09100
C1605       C  0.90595932  0.87335170  0.33546681     0.29700
C1606       C  0.87320236  0.84208363  0.33570966    -0.21100
C1607       C  0.84141067  0.84279823  0.33189937    -0.09200
C1608       C  0.84317298  0.87575118  0.32735623     0.29700
F1609       F  0.81337630  0.87794061  0.32285562    -0.19700
H1610       H  0.87636324  0.93192176  0.32362207     0.18100
H1611       H  0.87282071  0.81722786  0.33924333     0.18100
F1612       F  0.93573432  0.87108223  0.33975851    -0.19700
C1613       C  0.59233788  0.62294390  0.33304536    -0.21100
C1614       C  0.59311389  0.59106302  0.33349672    -0.09100
C1615       C  0.62621396  0.59273837  0.33499021     0.29700
C1616       C  0.65752328  0.62551492  0.33604680    -0.21100
C1617       C  0.65671588  0.65738952  0.33549112    -0.09200
C1618       C  0.62361753  0.65568874  0.33397416     0.29700
F1619       F  0.62123180  0.68555218  0.33313139    -0.19700
H1620       H  0.56739524  0.62266702  0.33185380     0.18100
H1621       H  0.68249296  0.62583961  0.33713183     0.18100
F1622       F  0.62856357  0.56284888  0.33541190    -0.19700
C1623       C  0.49487605  0.96834245  0.14339381    -0.21100
C1624       C  0.99982786  0.99852149  0.12201311    -0.09100
C1625       C  0.00537195  0.52843011  0.14453178     0.29700
C1626       C  0.00576493  0.52794571  0.18735575    -0.21100
C1627       C  0.00125932  0.99800987  0.20861096    -0.09200
C1628       C  0.49585116  0.96811493  0.18630527     0.29700
F1629       F  0.49036391  0.93833096  0.20596443    -0.19700
H1630       H  0.49046849  0.94491723  0.12686473     0.18100
H1631       H  0.00989545  0.55122294  0.20402051     0.18100
F1632       F  0.00971571  0.55796227  0.12532001    -0.19700
loop_ 
_geom_bond_atom_site_label_1 
_geom_bond_atom_site_label_2 
_geom_bond_distance 
_geom_bond_site_symmetry_2 
_ccdc_geom_bond_type 
O1           C11   1.282       .  A
O1         Ni825   1.920       .  S
O2           C12   1.283       .  A
O2         Ni417   1.924   1_545  S
O3          C829   1.281   1_455  A
O3           Ni9   1.917       .  S
O4           C14   1.281       .  A
O4           Ni9   1.919       .  S
O5         C1238   1.281   1_545  A
O5          Ni10   1.915       .  S
O6          C421   1.282   1_545  A
O6          Ni10   1.917       .  S
O7           C12   1.281       .  A
O7         Ni826   1.912   1_455  S
O8           C11   1.281       .  A
O8         Ni418   1.913       .  S
Ni9         O817   1.920   1_455  S
Ni9         O410   1.924       .  S
Ni9       Ni1234   2.386   1_455  S
Ni10        O823   1.912       .  S
Ni10        O416   1.913   1_545  S
Ni10      Ni1233   2.386   1_545  S
C11         C380   1.484       .  S
C12         C390   1.486       .  S
C13         O819   1.281       .  A
C13         O414   1.282       .  A
C13         C370   1.482       .  S
C14        O1229   1.281   1_455  A
C14        C1219   1.475       .  S
O15          C25   1.282       .  A
O15        Ni839   1.915       .  S
O16          C26   1.282       .  A
O16         Ni23   1.917       .  S
O17          C27   1.282       .  A
O17         Ni23   1.919       .  S
O18          C28   1.282       .  A
O18         Ni23   1.919       .  S
O19         C844   1.281       .  A
O19         Ni24   1.915       .  S
O20         C843   1.281       .  A
O20         Ni24   1.914       .  S
O21          C26   1.282       .  A
O21        Ni840   1.918   1_455  S
O22          C25   1.281       .  A
O22         Ni24   1.916       .  S
Ni23        O831   1.915   1_455  S
Ni23       Ni840   2.385   1_455  S
Ni24        O837   1.918       .  S
Ni24       Ni839   2.385       .  S
C25         C340   1.484       .  S
C26         C350   1.486       .  S
C27         O836   1.281   1_455  A
C27        C1146   1.478   1_455  S
C28         O835   1.281   1_455  A
C28         C360   1.482       .  S
O29          C39   1.282       .  A
O29         Ni37   1.917       .  S
O30          C40   1.283       .  A
O30        Ni445   1.918       .  S
O31          C41   1.280   1_545  A
O31         Ni37   1.912       .  S
O32          C42   1.280   1_545  A
O32         Ni37   1.914       .  S
O33         C450   1.283       .  A
O33         Ni38   1.922       .  S
O34         C449   1.283       .  A
O34         Ni38   1.923       .  S
O35          C40   1.281       .  A
O35         Ni38   1.917       .  S
O36          C39   1.281       .  A
O36        Ni446   1.914   1_545  S
Ni37        O438   1.918   1_545  S
Ni37       Ni446   2.385   1_545  S
Ni38        O444   1.914       .  S
Ni38       Ni445   2.385       .  S
C39         C343   1.484       .  S
C40         C353   1.486       .  S
C41         O442   1.283       .  A
C41         C310   1.481       .  S
C42         O441   1.283       .  A
C42         C323   1.480       .  S
O43          C53   1.282       .  A
O43         Ni51   1.918       .  S
O44          C54   1.282       .  A
O44         Ni51   1.918       .  S
O45          C55   1.281       .  A
O45         Ni51   1.913       .  S
O46          C56   1.280       .  A
O46         Ni51   1.910       .  S
O47          C56   1.283       .  A
O47         Ni52   1.924       .  S
O48          C55   1.283       .  A
O48         Ni52   1.922       .  S
O49          C54   1.281       .  A
O49         Ni52   1.917       .  S
O50          C53   1.281       .  A
O50         Ni52   1.915       .  S
Ni51        Ni52   2.385       .  S
C53         C300   1.483       .  S
C54         C290   1.478       .  S
C55         C393   1.486       .  S
C56         C383   1.485       .  S
O57          C67   1.282       .  A
O57        Ni881   1.918   1_455  S
O58          C68   1.282       .  A
O58         Ni65   1.916       .  S
O59          C69   1.280       .  A
O59         Ni65   1.915       .  S
O60          C70   1.281       .  A
O60         Ni65   1.917   1_554  S
O61        C1294   1.281   1_445  A
O61         Ni66   1.915   1_554  S
O62        C1293   1.280   1_445  A
O62         Ni66   1.915       .  S
O63         C476   1.281   1_545  A
O63        Ni882   1.916       .  S
O64         C475   1.281   1_545  A
O64         Ni66   1.913       .  S
Ni65        O873   1.918       .  S
Ni65      Ni1290   2.386       .  S
Ni66        O879   1.916   1_455  S
Ni66      Ni1289   2.386   1_445  S
C67         O472   1.281       .  A
C67         C270   1.483       .  S
C68         O471   1.281       .  A
C68         C260   1.484   1_556  S
C69        O1286   1.280       .  A
C69         C280   1.468       .  S
C70        O1285   1.281       .  A
C70         C400   1.481       .  S
O71          C81   1.282       .  A
O71         Ni79   1.917       .  S
O72          C82   1.282       .  A
O72        Ni895   1.918       .  S
O73          C83   1.281       .  A
O73         Ni79   1.917   1_554  S
O74         C900   1.281       .  A
O74         Ni79   1.919       .  S
O75          C84   1.280       .  A
O75         Ni80   1.913       .  S
O76         C899   1.280       .  A
O76         Ni80   1.914   1_554  S
O77          C82   1.281       .  A
O77         Ni80   1.915       .  S
O78          C81   1.282       .  A
O78        Ni896   1.914   1_455  S
Ni79        O888   1.918   1_455  S
Ni79       Ni896   2.388   1_455  S
Ni80        O894   1.914       .  S
Ni80       Ni895   2.388       .  S
C81         C240   1.484       .  S
C82         C230   1.484   1_556  S
C83         O892   1.280   1_455  A
C83         C363   1.472       .  S
C84         O890   1.281       .  A
C84         C250   1.467       .  S
O85          C95   1.281       .  A
O85         Ni93   1.915       .  S
O86          C96   1.283   1_545  A
O86         Ni93   1.919       .  S
O87          C97   1.281   1_545  A
O87         Ni93   1.914   1_556  S
O88          C98   1.281       .  A
O88         Ni93   1.917       .  S
O89         C506   1.282       .  A
O89         Ni94   1.917       .  S
O90         C505   1.282       .  A
O90         Ni94   1.917   1_556  S
O91         C504   1.281       .  A
O91         Ni94   1.914       .  S
O92         C503   1.282       .  A
O92         Ni94   1.915       .  S
Ni93       Ni502   2.385   1_545  S
Ni94       Ni501   2.385       .  S
C95         O500   1.282   1_545  A
C95         C273   1.483   1_554  S
C96         O499   1.281       .  A
C96         C263   1.485       .  S
C97         O498   1.282       .  A
C97         C220   1.482       .  S
C98         O497   1.282   1_545  A
C98         C320   1.477       .  S
O99         C109   1.282       .  A
O99        Ni107   1.915       .  S
O100        C110   1.282       .  A
O100       Ni107   1.917       .  S
O101        C111   1.281       .  A
O101       Ni107   1.917   1_556  S
O102        C112   1.281       .  A
O102       Ni107   1.916       .  S
O103        C112   1.280       .  A
O103       Ni108   1.915       .  S
O104        C111   1.281       .  A
O104       Ni108   1.913   1_556  S
O105        C110   1.281       .  A
O105       Ni108   1.916       .  S
O106        C109   1.282       .  A
O106       Ni108   1.917       .  S
Ni107      Ni108   2.387       .  S
C109        C243   1.484   1_554  S
C110        C233   1.484       .  S
C111        C213   1.474       .  S
C112        C303   1.470       .  S
O113        C939   1.282   1_455  A
O113       Ni529   1.916       .  S
O114        C940   1.283       .  A
O114       Ni121   1.920       .  S
O115        C941   1.281   1_455  A
O115       Ni121   1.915       .  S
O116        C942   1.281   1_455  A
O116       Ni121   1.915       .  S
O117        C534   1.281       .  A
O117       Ni122   1.916       .  S
O118        C533   1.282       .  A
O118       Ni122   1.916       .  S
O119        C124   1.281       .  A
O119       Ni530   1.913   1_545  S
O120        C123   1.281       .  A
O120       Ni122   1.916       .  S
Ni121       O521   1.916   1_545  S
Ni121     Ni1346   2.386   1_445  S
Ni122       O527   1.913       .  S
Ni122     Ni1345   2.386       .  S
C123        O929   1.282       .  A
C123        C190   1.484       .  S
C124        O930   1.283       .  A
C124        C203   1.485       .  S
C125        O931   1.281       .  A
C125        O526   1.282   1_545  A
C125        C691   1.482   1_545  S
C126        O932   1.281       .  A
C126        O525   1.281   1_545  A
C126        C373   1.473       .  S
O127        C953   1.280       .  A
O127       Ni135   1.913       .  S
O128        C954   1.281   1_455  A
O128       Ni135   1.916       .  S
O129        C955   1.281       .  A
O129       Ni135   1.916       .  S
O130        C956   1.281   1_455  A
O130       Ni135   1.915       .  S
O131        C140   1.281       .  A
O131       Ni136   1.918       .  S
O132        C139   1.282       .  A
O132       Ni136   1.917       .  S
O133        C138   1.282       .  A
O133       Ni136   1.918       .  S
O134        C137   1.283       .  A
O134       Ni136   1.918       .  S
Ni135      Ni952   2.385   1_455  S
Ni136      Ni951   2.385       .  S
C137        O943   1.280       .  A
C137        C200   1.484       .  S
C138        O944   1.281       .  A
C138        C193   1.485       .  S
C139        O945   1.281       .  A
C139        C253   1.484       .  S
C140        O946   1.281       .  A
C140        C333   1.477       .  S
O141        C151   1.280       .  A
O141       Ni557   1.911   1_545  S
O142        C152   1.280       .  A
O142       Ni149   1.909       .  S
O143        C561   1.280       .  A
O143       Ni149   1.917       .  S
O144        C562   1.282       .  A
O144       Ni149   1.919       .  S
O145        C154   1.280       .  A
O145       Ni150   1.914       .  S
O146        C153   1.279   1_545  A
O146       Ni150   1.912       .  S
O147        C152   1.283       .  A
O147       Ni558   1.922       .  S
O148        C151   1.284       .  A
O148       Ni150   1.924       .  S
Ni149       O549   1.911       .  S
Ni149      Ni558   2.387       .  S
Ni150       O555   1.922   1_545  S
Ni150      Ni557   2.387   1_545  S
C151        C180   1.487       .  S
C152        C173   1.484       .  S
C153        O551   1.280       .  A
C153        C223   1.463       .  S
C154        O552   1.282   1_545  A
C154        C313   1.477       .  S
O155        C165   1.283       .  A
O155       Ni163   1.922       .  S
O156        C166   1.282       .  A
O156       Ni163   1.920       .  S
O157        C167   1.282       .  A
O157       Ni163   1.919       .  S
O158        C168   1.281       .  A
O158       Ni163   1.916       .  S
O159        C168   1.281       .  A
O159       Ni164   1.914       .  S
O160        C167   1.281       .  A
O160       Ni164   1.914       .  S
O161        C166   1.281       .  A
O161       Ni164   1.909       .  S
O162        C165   1.280       .  A
O162       Ni164   1.913       .  S
Ni163      Ni164   2.385       .  S
C165        C183   1.486       .  S
C166        C170   1.483       .  S
C167        C293   1.479       .  S
C168        C210   1.478       .  S
C169        C170   1.407       .  A
C169        C174   1.396       .  A
C169        H176   1.082       .  S
C170        C171   1.408       .  A
C171        C172   1.399       .  A
C171        F178   1.358       .  S
C172        C173   1.408       .  A
C172        H177   1.082       .  S
C173        C174   1.407       .  A
C174        F175   1.357       .  S
C179        C180   1.405       .  A
C179        C184   1.400       .  A
C179        H186   1.082       .  S
C180        C181   1.411       .  A
C181        C182   1.398       .  A
C181        F188   1.357       .  S
C182        C183   1.405       .  A
C182        H187   1.082       .  S
C183        C184   1.411       .  A
C184        F185   1.357       .  S
C189        C194   1.397       .  A
C189       C1006   1.405   1_455  A
C189        H196   1.082       .  S
C190        C191   1.410       .  A
C190       C1005   1.405       .  A
C191        C192   1.399       .  A
C191        F198   1.358       .  S
C192        C193   1.406       .  A
C192        H197   1.082       .  S
C193       C1010   1.409       .  A
C194       C1009   1.409   1_455  A
C194        F195   1.357       .  S
C199        C200   1.405       .  A
C199        C204   1.397       .  A
C199        H206   1.082       .  S
C200       C1017   1.410       .  A
C201        C202   1.399       .  A
C201       C1016   1.410       .  A
C201        F208   1.358       .  S
C202       C1019   1.406       .  A
C202        H207   1.082       .  S
C203        C204   1.410       .  A
C203       C1018   1.406       .  A
C204        F205   1.357       .  S
C209        C210   1.406       .  A
C209        C214   1.398       .  A
C209        H216   1.083       .  S
C210        C211   1.407       .  A
C211        C212   1.396       .  A
C211        F218   1.357       .  S
C212        C213   1.403       .  A
C212        H217   1.083       .  S
C213        C214   1.406       .  A
C214        F215   1.358       .  S
C219        C224   1.398       .  A
C219        C628   1.408       .  A
C219        H226   1.085       .  S
C220        C221   1.411   1_565  A
C220        C627   1.408       .  A
C221        C222   1.396       .  A
C221        F228   1.357       .  S
C222        C223   1.398   1_545  A
C222        H227   1.085       .  S
C223        C632   1.401       .  A
C224        C631   1.401       .  A
C224        F225   1.358       .  S
C229        C230   1.406   1_556  A
C229        C234   1.398       .  A
C229        H236   1.082       .  S
C230        C231   1.409       .  A
C231        C232   1.398       .  A
C231        F238   1.357       .  S
C232        C233   1.406       .  A
C232        H237   1.082       .  S
C233        C234   1.409   1_554  A
C234        F235   1.358       .  S
C239        C240   1.406       .  A
C239        C244   1.397   1_556  A
C239        H246   1.082   1_556  S
C240        C241   1.409       .  A
C241        C242   1.397       .  A
C241        F248   1.357       .  S
C242        C243   1.406       .  A
C242        H247   1.082       .  S
C243        C244   1.409   1_556  A
C244        F245   1.357       .  S
C249        C254   1.400       .  A
C249       C1066   1.401       .  A
C249        H256   1.085       .  S
C250        C251   1.401       .  A
C250       C1065   1.401       .  A
C251        C252   1.396       .  A
C251        F258   1.357       .  S
C252        C253   1.407       .  A
C252        H257   1.085       .  S
C253       C1070   1.412       .  A
C254       C1069   1.412       .  A
C254        F255   1.358       .  S
C259        C260   1.406       .  A
C259        C264   1.398       .  A
C259        H266   1.082       .  S
C260        C669   1.409       .  A
C261        C262   1.397       .  A
C261        C668   1.409   1_545  A
C261        F268   1.357       .  S
C262        C263   1.406   1_545  A
C262        H267   1.082       .  S
C263        C672   1.410       .  A
C264        C671   1.410       .  A
C264        F265   1.358       .  S
C269        C274   1.397   1_556  A
C269        C678   1.407   1_545  A
C269        H276   1.082   1_556  S
C270        C271   1.409       .  A
C270        C677   1.407       .  A
C271        C272   1.397       .  A
C271        F278   1.357       .  S
C272        C681   1.406       .  A
C272        H277   1.082       .  S
C273        C274   1.409   1_556  A
C273        C680   1.406   1_545  A
C274        F275   1.358       .  S
C279        C284   1.397       .  A
C279       C1504   1.400   1_445  A
C279        H286   1.085       .  S
C280        C281   1.403       .  A
C280       C1503   1.400       .  A
C281        C282   1.397       .  A
C281        F288   1.358       .  S
C282        C283   1.407       .  A
C282        H287   1.085       .  S
C283        C533   1.482       .  S
C283       C1508   1.411       .  A
C284       C1507   1.411   1_445  A
C284        F285   1.357       .  S
C289        C290   1.404       .  A
C289        C294   1.398       .  A
C289        H296   1.084       .  S
C290        C291   1.407       .  A
C291        C292   1.399       .  A
C291        F298   1.358       .  S
C292        C293   1.405       .  A
C292        H297   1.084       .  S
C293        C294   1.408       .  A
C294        F295   1.357       .  S
C299        C300   1.407       .  A
C299        C304   1.398       .  A
C299        H306   1.085       .  S
C300        C301   1.411       .  A
C301        C302   1.398       .  A
C301        F308   1.357       .  S
C302        C303   1.401       .  A
C302        H307   1.085       .  S
C303        C304   1.404       .  A
C304        F305   1.358       .  S
C309        C310   1.405       .  A
C309        C314   1.400       .  A
C309        H316   1.084       .  S
C310        C719   1.409   1_565  A
C311        C312   1.396       .  A
C311        C718   1.409       .  A
C311        F318   1.357       .  S
C312        C721   1.402       .  A
C312        H317   1.084       .  S
C313        C314   1.408   1_545  A
C313        C720   1.402       .  A
C314        F315   1.358       .  S
C319        C324   1.397       .  A
C319        C728   1.403       .  A
C319        H326   1.084       .  S
C320        C321   1.407       .  A
C320        C727   1.403   1_545  A
C321        C322   1.400       .  A
C321        F328   1.358       .  S
C322        C323   1.406   1_545  A
C322        H327   1.084       .  S
C323        C732   1.407       .  A
C324        C731   1.407       .  A
C324        F325   1.357       .  S
C329        C330   1.406       .  A
C329        C334   1.399       .  A
C329        H336   1.085       .  S
C330        C843   1.478       .  S
C330       C1147   1.406       .  A
C331        C332   1.397       .  A
C331       C1146   1.406   1_455  A
C331        F338   1.357       .  S
C332       C1149   1.404   1_455  A
C332        H337   1.085       .  S
C333        C334   1.407       .  A
C333       C1148   1.404       .  A
C334        F335   1.358       .  S
C339        C340   1.406       .  A
C339        C344   1.397       .  A
C339        H346   1.082       .  S
C340        C341   1.409       .  A
C341        C342   1.398       .  A
C341        F348   1.357       .  S
C342        C343   1.406       .  A
C342        H347   1.082       .  S
C343        C344   1.409       .  A
C344        F345   1.357       .  S
C349        C350   1.407       .  A
C349        C354   1.400       .  A
C349        H356   1.082       .  S
C350        C351   1.409       .  A
C351        C352   1.397       .  A
C351        F358   1.357       .  S
C352        C353   1.406       .  A
C352        H357   1.082       .  S
C353        C354   1.410       .  A
C354        F355   1.358       .  S
C359        C360   1.406       .  A
C359        C364   1.397       .  A
C359        H366   1.085       .  S
C360       C1177   1.411   1_455  A
C361        C362   1.398       .  A
C361       C1176   1.411       .  A
C361        F368   1.357       .  S
C362       C1179   1.402       .  A
C362        H367   1.085       .  S
C363        C364   1.405       .  A
C363       C1178   1.402   1_455  A
C364        F365   1.358       .  S
C369        C374   1.398       .  A
C369        C778   1.407   1_545  A
C369        H376   1.084       .  S
C370        C777   1.407       .  A
C370       C1187   1.409       .  A
C371        C372   1.397       .  A
C371       C1186   1.409   1_455  A
C371        F378   1.357       .  S
C372       C1597   1.402   1_455  A
C372        H377   1.085       .  S
C373        C374   1.405       .  A
C373       C1596   1.402   1_545  A
C374        F375   1.358       .  S
C379        C380   1.407       .  A
C379        C384   1.398       .  A
C379        H386   1.082       .  S
C380        C381   1.408       .  A
C381        C382   1.397       .  A
C381        F388   1.358       .  S
C382        C383   1.407       .  A
C382        H387   1.082       .  S
C383        C384   1.408       .  A
C384        F385   1.357       .  S
C389        C390   1.407       .  A
C389        C394   1.398       .  A
C389        H396   1.082       .  S
C390        C391   1.409       .  A
C391        C392   1.399       .  A
C391        F398   1.357       .  S
C392        C393   1.408       .  A
C392        H397   1.082       .  S
C393        C394   1.408       .  A
C394        F395   1.357       .  S
C399        C404   1.400       .  A
C399       C1216   1.407       .  A
C399        H406   1.084       .  S
C400       C1215   1.407       .  A
C400        C809   1.409       .  A
C401        C402   1.396       .  A
C401        C808   1.409   1_545  A
C401        F408   1.357       .  S
C402        C811   1.402   1_545  A
C402        H407   1.084       .  S
C403        C830   1.475       .  S
C403        C810   1.402       .  A
C403       C1220   1.406       .  A
C404       C1219   1.406   1_655  A
C404        F405   1.358       .  S
O409        C419   1.282       .  A
O409      Ni1233   1.920       .  S
O410        C420   1.283       .  A
O411       C1237   1.281   1_455  A
O411       Ni417   1.917       .  S
O412        C422   1.281       .  A
O412       Ni417   1.919       .  S
O413        C830   1.281       .  A
O413       Ni418   1.915       .  S
O414       Ni418   1.917       .  S
O415        C420   1.281       .  A
O415      Ni1234   1.912   1_455  S
O416        C419   1.281       .  A
Ni417      O1225   1.920   1_455  S
Ni417      Ni826   2.386   1_465  S
Ni418      O1231   1.912       .  S
Ni418      Ni825   2.386       .  S
C419        C788   1.484       .  S
C420        C798   1.486       .  S
C421       O1227   1.281       .  A
C421        C778   1.482       .  S
C422        O821   1.281   1_465  A
C422       C1627   1.475       .  S
O423        C433   1.282       .  A
O423      Ni1247   1.915       .  S
O424        C434   1.282       .  A
O424       Ni431   1.917       .  S
O425        C435   1.282       .  A
O425       Ni431   1.919       .  S
O426        C436   1.282       .  A
O426       Ni431   1.919       .  S
O427       C1252   1.281       .  A
O427       Ni432   1.915       .  S
O428       C1251   1.281       .  A
O428       Ni432   1.914       .  S
O429        C434   1.282       .  A
O429      Ni1248   1.918   1_455  S
O430        C433   1.281       .  A
O430       Ni432   1.916       .  S
Ni431      O1239   1.915   1_455  S
Ni431     Ni1248   2.385   1_455  S
Ni432      O1245   1.918       .  S
Ni432     Ni1247   2.385       .  S
C433        C748   1.484       .  S
C434        C758   1.486       .  S
C435       O1244   1.281   1_455  A
C435       C1554   1.478   1_455  S
C436       O1243   1.281   1_455  A
C436        C768   1.482       .  S
O437        C447   1.282       .  A
O437       Ni445   1.917       .  S
O438        C448   1.283       .  A
O439        C449   1.280       .  A
O439       Ni445   1.912       .  S
O440        C450   1.280       .  A
O440       Ni445   1.914       .  S
O441       Ni446   1.922       .  S
O442       Ni446   1.923       .  S
O443        C448   1.281       .  A
O443       Ni446   1.917       .  S
O444        C447   1.281       .  A
C447        C751   1.484       .  S
C448        C761   1.486       .  S
C449        C718   1.481       .  S
C450        C731   1.480       .  S
O451        C461   1.282       .  A
O451       Ni459   1.918       .  S
O452        C462   1.282       .  A
O452       Ni459   1.918       .  S
O453        C463   1.281       .  A
O453       Ni459   1.913       .  S
O454        C464   1.280       .  A
O454       Ni459   1.910       .  S
O455        C464   1.283       .  A
O455       Ni460   1.924       .  S
O456        C463   1.283       .  A
O456       Ni460   1.922       .  S
O457        C462   1.281       .  A
O457       Ni460   1.917       .  S
O458        C461   1.281       .  A
O458       Ni460   1.915       .  S
Ni459      Ni460   2.385       .  S
C461        C708   1.483       .  S
C462        C698   1.478       .  S
C463        C801   1.486       .  S
C464        C791   1.485       .  S
O465        C475   1.282       .  A
O465      Ni1289   1.918   1_455  S
O466        C476   1.282       .  A
O466       Ni473   1.916       .  S
O467        C477   1.280       .  A
O467       Ni473   1.915       .  S
O468        C478   1.281       .  A
O468       Ni473   1.917   1_554  S
O469        C886   1.281   1_455  A
O469       Ni474   1.915   1_554  S
O470        C885   1.280   1_455  A
O470       Ni474   1.915       .  S
O471      Ni1290   1.916       .  S
O472       Ni474   1.913       .  S
Ni473      O1281   1.918       .  S
Ni473      Ni882   2.386   1_565  S
Ni474      O1287   1.916   1_455  S
Ni474      Ni881   2.386   1_455  S
C475        C678   1.483       .  S
C476        C668   1.484   1_556  S
C477        O878   1.280   1_565  A
C477        C688   1.468       .  S
C478        O877   1.281   1_565  A
C478        C808   1.481       .  S
O479        C489   1.282       .  A
O479       Ni487   1.917       .  S
O480        C490   1.282       .  A
O480      Ni1303   1.918       .  S
O481        C491   1.281       .  A
O481       Ni487   1.917   1_554  S
O482       C1308   1.281       .  A
O482       Ni487   1.919       .  S
O483        C492   1.280       .  A
O483       Ni488   1.913       .  S
O484       C1307   1.280       .  A
O484       Ni488   1.914   1_554  S
O485        C490   1.281       .  A
O485       Ni488   1.915       .  S
O486        C489   1.282       .  A
O486      Ni1304   1.914   1_455  S
Ni487      O1296   1.918   1_455  S
Ni487     Ni1304   2.388   1_455  S
Ni488      O1302   1.914       .  S
Ni488     Ni1303   2.388       .  S
C489        C648   1.484       .  S
C490        C638   1.484   1_556  S
C491       O1300   1.280   1_455  A
C491        C771   1.472       .  S
C492       O1298   1.281       .  A
C492        C658   1.467       .  S
O493        C503   1.281       .  A
O493       Ni501   1.915       .  S
O494        C504   1.283       .  A
O494       Ni501   1.919       .  S
O495        C505   1.281       .  A
O495       Ni501   1.914   1_556  S
O496        C506   1.281       .  A
O496       Ni501   1.917       .  S
O497       Ni502   1.917       .  S
O498       Ni502   1.917   1_556  S
O499       Ni502   1.914       .  S
O500       Ni502   1.915       .  S
C503        C681   1.483   1_554  S
C504        C671   1.485       .  S
C505        C628   1.482       .  S
C506        C728   1.477       .  S
O507        C517   1.282       .  A
O507       Ni515   1.915       .  S
O508        C518   1.282       .  A
O508       Ni515   1.917       .  S
O509        C519   1.281       .  A
O509       Ni515   1.917   1_556  S
O510        C520   1.281       .  A
O510       Ni515   1.916       .  S
O511        C520   1.280       .  A
O511       Ni516   1.915       .  S
O512        C519   1.281       .  A
O512       Ni516   1.913   1_556  S
O513        C518   1.281       .  A
O513       Ni516   1.916       .  S
O514        C517   1.282       .  A
O514       Ni516   1.917       .  S
Ni515      Ni516   2.387       .  S
C517        C651   1.484   1_554  S
C518        C641   1.484       .  S
C519        C621   1.474       .  S
C520        C711   1.470       .  S
O521       C1347   1.282   1_455  A
O522       C1348   1.283       .  A
O522       Ni529   1.920       .  S
O523       C1349   1.281   1_455  A
O523       Ni529   1.915       .  S
O524       C1350   1.281   1_455  A
O524       Ni529   1.915       .  S
O525       Ni530   1.916       .  S
O526       Ni530   1.916       .  S
O527        C532   1.281       .  A
O528        C531   1.281       .  A
O528       Ni530   1.916       .  S
Ni529      Ni938   2.386   1_455  S
Ni530      Ni937   2.386   1_565  S
C531       O1337   1.282       .  A
C531        C598   1.484       .  S
C532       O1338   1.283       .  A
C532        C611   1.485       .  S
C533       O1339   1.281       .  A
C534       O1340   1.281       .  A
C534        C781   1.473       .  S
O535       C1361   1.280       .  A
O535       Ni543   1.914       .  S
O536       C1362   1.281   1_455  A
O536       Ni543   1.916       .  S
O537       C1363   1.281       .  A
O537       Ni543   1.916       .  S
O538       C1364   1.281   1_455  A
O538       Ni543   1.915       .  S
O539        C548   1.281       .  A
O539       Ni544   1.918       .  S
O540        C547   1.282       .  A
O540       Ni544   1.917       .  S
O541        C546   1.282       .  A
O541       Ni544   1.918       .  S
O542        C545   1.283       .  A
O542       Ni544   1.918       .  S
Ni543     Ni1360   2.385   1_455  S
Ni544     Ni1359   2.385       .  S
C545       O1351   1.280       .  A
C545        C608   1.484       .  S
C546       O1352   1.281       .  A
C546        C601   1.485       .  S
C547       O1353   1.281       .  A
C547        C661   1.484       .  S
C548       O1354   1.281       .  A
C548        C741   1.477       .  S
O549        C559   1.280       .  A
O550        C560   1.280       .  A
O550       Ni557   1.909       .  S
O551       Ni557   1.917       .  S
O552       Ni557   1.919       .  S
O553        C562   1.280       .  A
O553       Ni558   1.914       .  S
O554        C561   1.279       .  A
O554       Ni558   1.912       .  S
O555        C560   1.283       .  A
O556        C559   1.284       .  A
O556       Ni558   1.924       .  S
C559        C588   1.487       .  S
C560        C581   1.484       .  S
C561        C631   1.463       .  S
C562        C721   1.477       .  S
O563        C573   1.283       .  A
O563       Ni571   1.922       .  S
O564        C574   1.282       .  A
O564       Ni571   1.920       .  S
O565        C575   1.282       .  A
O565       Ni571   1.919       .  S
O566        C576   1.281       .  A
O566       Ni571   1.916       .  S
O567        C576   1.281       .  A
O567       Ni572   1.914       .  S
O568        C575   1.281       .  A
O568       Ni572   1.914       .  S
O569        C574   1.281       .  A
O569       Ni572   1.909       .  S
O570        C573   1.280       .  A
O570       Ni572   1.913       .  S
Ni571      Ni572   2.385       .  S
C573        C591   1.486       .  S
C574        C578   1.483       .  S
C575        C701   1.479       .  S
C576        C618   1.478       .  S
C577        C578   1.407       .  A
C577        C582   1.396       .  A
C577        H584   1.082       .  S
C578        C579   1.408       .  A
C579        C580   1.399       .  A
C579        F586   1.358       .  S
C580        C581   1.408       .  A
C580        H585   1.082       .  S
C581        C582   1.407       .  A
C582        F583   1.357       .  S
C587        C588   1.405       .  A
C587        C592   1.400       .  A
C587        H594   1.082       .  S
C588        C589   1.411       .  A
C589        C590   1.398       .  A
C589        F596   1.357       .  S
C590        C591   1.405       .  A
C590        H595   1.082       .  S
C591        C592   1.411       .  A
C592        F593   1.357       .  S
C597       C1414   1.405   1_455  A
C597        C602   1.397       .  A
C597        H604   1.082       .  S
C598       C1413   1.405       .  A
C598        C599   1.410       .  A
C599        C600   1.399       .  A
C599        F606   1.358       .  S
C600        C601   1.406       .  A
C600        H605   1.082       .  S
C601       C1418   1.409       .  A
C602       C1417   1.409   1_455  A
C602        F603   1.357       .  S
C607        C608   1.405       .  A
C607        C612   1.397       .  A
C607        H614   1.082       .  S
C608       C1425   1.410       .  A
C609       C1424   1.410       .  A
C609        C610   1.399       .  A
C609        F616   1.358       .  S
C610       C1427   1.406       .  A
C610        H615   1.082       .  S
C611       C1426   1.406       .  A
C611        C612   1.410       .  A
C612        F613   1.357       .  S
C617        C618   1.406       .  A
C617        C622   1.398       .  A
C617        H624   1.083       .  S
C618        C619   1.407       .  A
C619        C620   1.396       .  A
C619        F626   1.357       .  S
C620        C621   1.403       .  A
C620        H625   1.083       .  S
C621        C622   1.406       .  A
C622        F623   1.358       .  S
C627        C632   1.398       .  A
C627        H634   1.085       .  S
C628        C629   1.411       .  A
C629        C630   1.396       .  A
C629        F636   1.357       .  S
C630        C631   1.398       .  A
C630        H635   1.085       .  S
C632        F633   1.358       .  S
C637        C638   1.406   1_556  A
C637        C642   1.398       .  A
C637        H644   1.082       .  S
C638        C639   1.409       .  A
C639        C640   1.398       .  A
C639        F646   1.357       .  S
C640        C641   1.406       .  A
C640        H645   1.082       .  S
C641        C642   1.409   1_554  A
C642        F643   1.358       .  S
C647        C648   1.406       .  A
C647        C652   1.397   1_556  A
C647        H654   1.082   1_556  S
C648        C649   1.409       .  A
C649        C650   1.397       .  A
C649        F656   1.357       .  S
C650        C651   1.406       .  A
C650        H655   1.082       .  S
C651        C652   1.409   1_556  A
C652        F653   1.357       .  S
C657       C1474   1.401       .  A
C657        C662   1.400       .  A
C657        H664   1.085       .  S
C658       C1473   1.401       .  A
C658        C659   1.401       .  A
C659        C660   1.396       .  A
C659        F666   1.357       .  S
C660        C661   1.407       .  A
C660        H665   1.085       .  S
C661       C1478   1.412       .  A
C662       C1477   1.412       .  A
C662        F663   1.358       .  S
C667        C668   1.406       .  A
C667        C672   1.398       .  A
C667        H674   1.082       .  S
C669        C670   1.397       .  A
C669        F676   1.357       .  S
C670        C671   1.406       .  A
C670        H675   1.082       .  S
C672        F673   1.358       .  S
C677        C682   1.397   1_556  A
C677        H684   1.082   1_556  S
C678        C679   1.409       .  A
C679        C680   1.397       .  A
C679        F686   1.357       .  S
C680        H685   1.082       .  S
C681        C682   1.409   1_556  A
C682        F683   1.358       .  S
C687       C1096   1.400   1_455  A
C687        C692   1.397       .  A
C687        H694   1.085       .  S
C688       C1095   1.400   1_565  A
C688        C689   1.403       .  A
C689        C690   1.397       .  A
C689        F696   1.358       .  S
C690        C691   1.407       .  A
C690        H695   1.084       .  S
C691       C1100   1.411   1_565  A
C692       C1099   1.411   1_455  A
C692        F693   1.357       .  S
C697        C698   1.404       .  A
C697        C702   1.398       .  A
C697        H704   1.084       .  S
C698        C699   1.407       .  A
C699        C700   1.399       .  A
C699        F706   1.358       .  S
C700        C701   1.405       .  A
C700        H705   1.084       .  S
C701        C702   1.408       .  A
C702        F703   1.357       .  S
C707        C708   1.407       .  A
C707        C712   1.398       .  A
C707        H714   1.085       .  S
C708        C709   1.411       .  A
C709        C710   1.398       .  A
C709        F716   1.357       .  S
C710        C711   1.401       .  A
C710        H715   1.085       .  S
C711        C712   1.404       .  A
C712        F713   1.358       .  S
C717        C718   1.405       .  A
C717        C722   1.400       .  A
C717        H724   1.084       .  S
C719        C720   1.396       .  A
C719        F726   1.357       .  S
C720        H725   1.084       .  S
C721        C722   1.408       .  A
C722        F723   1.358       .  S
C727        C732   1.397       .  A
C727        H734   1.084       .  S
C728        C729   1.407       .  A
C729        C730   1.400       .  A
C729        F736   1.358       .  S
C730        C731   1.406       .  A
C730        H735   1.084       .  S
C732        F733   1.357       .  S
C737        C738   1.406       .  A
C737        C742   1.399       .  A
C737        H744   1.085       .  S
C738       C1251   1.478       .  S
C738       C1555   1.406       .  A
C739       C1554   1.406   1_455  A
C739        C740   1.397       .  A
C739        F746   1.357       .  S
C740       C1557   1.404   1_455  A
C740        H745   1.085       .  S
C741       C1556   1.404       .  A
C741        C742   1.407       .  A
C742        F743   1.358       .  S
C747        C748   1.406       .  A
C747        C752   1.397       .  A
C747        H754   1.082       .  S
C748        C749   1.409       .  A
C749        C750   1.398       .  A
C749        F756   1.357       .  S
C750        C751   1.406       .  A
C750        H755   1.082       .  S
C751        C752   1.409       .  A
C752        F753   1.357       .  S
C757        C758   1.407       .  A
C757        C762   1.400       .  A
C757        H764   1.082       .  S
C758        C759   1.409       .  A
C759        C760   1.397       .  A
C759        F766   1.357       .  S
C760        C761   1.406       .  A
C760        H765   1.082       .  S
C761        C762   1.410       .  A
C762        F763   1.358       .  S
C767        C768   1.406       .  A
C767        C772   1.397       .  A
C767        H774   1.085       .  S
C768       C1585   1.411   1_455  A
C769       C1584   1.411       .  A
C769        C770   1.398       .  A
C769        F776   1.357       .  S
C770       C1587   1.402       .  A
C770        H775   1.085       .  S
C771       C1586   1.402   1_455  A
C771        C772   1.405       .  A
C772        F773   1.358       .  S
C777        C782   1.398       .  A
C777        H784   1.084       .  S
C778       C1595   1.409       .  A
C779       C1594   1.409   1_455  A
C779        C780   1.397       .  A
C779        F786   1.357       .  S
C780       C1189   1.402   1_465  A
C780        H785   1.085       .  S
C781       C1188   1.402       .  A
C781        C782   1.405       .  A
C782        F783   1.358       .  S
C787        C788   1.407       .  A
C787        C792   1.398       .  A
C787        H794   1.082       .  S
C788        C789   1.408       .  A
C789        C790   1.397       .  A
C789        F796   1.358       .  S
C790        C791   1.407       .  A
C790        H795   1.082       .  S
C791        C792   1.408       .  A
C792        F793   1.357       .  S
C797        C798   1.407       .  A
C797        C802   1.398       .  A
C797        H804   1.082       .  S
C798        C799   1.409       .  A
C799        C800   1.399       .  A
C799        F806   1.357       .  S
C800        C801   1.408       .  A
C800        H805   1.082       .  S
C801        C802   1.408       .  A
C802        F803   1.357       .  S
C807       C1624   1.407       .  A
C807        C812   1.400       .  A
C807        H814   1.084       .  S
C808       C1623   1.407       .  A
C809        C810   1.396       .  A
C809        F816   1.357       .  S
C810        H815   1.084       .  S
C811       C1238   1.475       .  S
C811       C1628   1.406       .  A
C812       C1627   1.406   1_655  A
C812        F813   1.358       .  S
O817        C827   1.282       .  A
O818        C828   1.283       .  A
O818      Ni1233   1.924   1_545  S
O819       Ni825   1.917       .  S
O820        C830   1.281       .  A
O820       Ni825   1.919       .  S
O821       Ni826   1.915       .  S
O822       C1237   1.282   1_545  A
O822       Ni826   1.917       .  S
O823        C828   1.281       .  A
O824        C827   1.281       .  A
O824      Ni1234   1.913       .  S
Ni825      O1226   1.924       .  S
Ni826      O1232   1.913   1_545  S
C827       C1196   1.484       .  S
C828       C1206   1.486       .  S
C829       O1230   1.282       .  A
C829       C1186   1.482       .  S
O831        C841   1.282       .  A
O832        C842   1.282       .  A
O832       Ni839   1.917       .  S
O833        C843   1.282       .  A
O833       Ni839   1.919       .  S
O834        C844   1.282       .  A
O834       Ni839   1.919       .  S
O835       Ni840   1.915       .  S
O836       Ni840   1.914       .  S
O837        C842   1.282       .  A
O838        C841   1.281       .  A
O838       Ni840   1.916       .  S
C841       C1156   1.484       .  S
C842       C1166   1.486       .  S
C844       C1176   1.482       .  S
O845        C855   1.282       .  A
O845       Ni853   1.917       .  S
O846        C856   1.283       .  A
O846      Ni1261   1.918       .  S
O847        C857   1.280   1_545  A
O847       Ni853   1.912       .  S
O848        C858   1.280   1_545  A
O848       Ni853   1.914       .  S
O849       C1266   1.283       .  A
O849       Ni854   1.922       .  S
O850       C1265   1.283       .  A
O850       Ni854   1.923       .  S
O851        C856   1.281       .  A
O851       Ni854   1.917       .  S
O852        C855   1.281       .  A
O852      Ni1262   1.914   1_545  S
Ni853      O1254   1.918   1_545  S
Ni853     Ni1262   2.385   1_545  S
Ni854      O1260   1.914       .  S
Ni854     Ni1261   2.385       .  S
C855       C1159   1.484       .  S
C856       C1169   1.486       .  S
C857       O1258   1.283       .  A
C857       C1126   1.481       .  S
C858       O1257   1.283       .  A
C858       C1139   1.480       .  S
O859        C869   1.282       .  A
O859       Ni867   1.918       .  S
O860        C870   1.282       .  A
O860       Ni867   1.918       .  S
O861        C871   1.281       .  A
O861       Ni867   1.913       .  S
O862        C872   1.280       .  A
O862       Ni867   1.910       .  S
O863        C872   1.283       .  A
O863       Ni868   1.924       .  S
O864        C871   1.283       .  A
O864       Ni868   1.922       .  S
O865        C870   1.281       .  A
O865       Ni868   1.917       .  S
O866        C869   1.281       .  A
O866       Ni868   1.915       .  S
Ni867      Ni868   2.385       .  S
C869       C1116   1.483       .  S
C870       C1106   1.478       .  S
C871       C1209   1.486       .  S
C872       C1199   1.485       .  S
O873        C883   1.282       .  A
O874        C884   1.282       .  A
O874       Ni881   1.916       .  S
O875        C885   1.280       .  A
O875       Ni881   1.915       .  S
O876        C886   1.281       .  A
O876       Ni881   1.917   1_554  S
O877       Ni882   1.915   1_554  S
O878       Ni882   1.915       .  S
O879       C1292   1.281   1_545  A
O880       C1291   1.281   1_545  A
O880       Ni882   1.913       .  S
C883       O1288   1.281       .  A
C883       C1086   1.483       .  S
C884       O1287   1.281       .  A
C884       C1076   1.484   1_556  S
C885       C1096   1.468       .  S
C886       C1216   1.481       .  S
O887        C897   1.282       .  A
O887       Ni895   1.917       .  S
O888        C898   1.282       .  A
O889        C899   1.281       .  A
O889       Ni895   1.917   1_554  S
O890       Ni895   1.919       .  S
O891        C900   1.280   1_655  A
O891       Ni896   1.913       .  S
O892       Ni896   1.914   1_554  S
O893        C898   1.281       .  A
O893       Ni896   1.915       .  S
O894        C897   1.282       .  A
C897       C1056   1.484       .  S
C898       C1046   1.484   1_556  S
C899       C1179   1.472       .  S
C900       C1066   1.467       .  S
O901        C911   1.281       .  A
O901       Ni909   1.915       .  S
O902        C912   1.283   1_545  A
O902       Ni909   1.919       .  S
O903        C913   1.281   1_545  A
O903       Ni909   1.914   1_556  S
O904        C914   1.281       .  A
O904       Ni909   1.917       .  S
O905       C1322   1.282       .  A
O905       Ni910   1.917       .  S
O906       C1321   1.282       .  A
O906       Ni910   1.917   1_556  S
O907       C1320   1.281       .  A
O907       Ni910   1.914       .  S
O908       C1319   1.282       .  A
O908       Ni910   1.915       .  S
Ni909     Ni1318   2.385   1_545  S
Ni910     Ni1317   2.385       .  S
C911       O1316   1.282   1_545  A
C911       C1089   1.483   1_554  S
C912       O1315   1.281       .  A
C912       C1079   1.485       .  S
C913       O1314   1.282       .  A
C913       C1036   1.482       .  S
C914       O1313   1.282   1_545  A
C914       C1136   1.477       .  S
O915        C925   1.282       .  A
O915       Ni923   1.915       .  S
O916        C926   1.282       .  A
O916       Ni923   1.917       .  S
O917        C927   1.281       .  A
O917       Ni923   1.917   1_556  S
O918        C928   1.281       .  A
O918       Ni923   1.916       .  S
O919        C928   1.280       .  A
O919       Ni924   1.915       .  S
O920        C927   1.281       .  A
O920       Ni924   1.913   1_556  S
O921        C926   1.281       .  A
O921       Ni924   1.916       .  S
O922        C925   1.282       .  A
O922       Ni924   1.917       .  S
Ni923      Ni924   2.387       .  S
C925       C1059   1.484   1_554  S
C926       C1049   1.484       .  S
C927       C1029   1.474       .  S
C928       C1119   1.470       .  S
O929      Ni1345   1.916       .  S
O930       Ni937   1.920       .  S
O931       Ni937   1.915       .  S
O932       Ni937   1.915       .  S
O933       C1350   1.281       .  A
O933       Ni938   1.916       .  S
O934       C1349   1.282       .  A
O934       Ni938   1.916       .  S
O935        C940   1.281   1_655  A
O935      Ni1346   1.913   1_545  S
O936        C939   1.281       .  A
O936       Ni938   1.916       .  S
Ni937      O1337   1.916   1_545  S
Ni938      O1343   1.913       .  S
C939       C1006   1.484       .  S
C940       C1019   1.485       .  S
C941       O1342   1.282   1_545  A
C941       C1507   1.482   1_545  S
C942       O1341   1.281   1_545  A
C942       C1189   1.473       .  S
O943       Ni951   1.913       .  S
O944       Ni951   1.916       .  S
O945       Ni951   1.916       .  S
O946       Ni951   1.915       .  S
O947        C956   1.281       .  A
O947       Ni952   1.918       .  S
O948        C955   1.282   1_655  A
O948       Ni952   1.917       .  S
O949        C954   1.282       .  A
O949       Ni952   1.918       .  S
O950        C953   1.283   1_655  A
O950       Ni952   1.918       .  S
C953       C1016   1.484       .  S
C954       C1009   1.485       .  S
C955       C1069   1.484       .  S
C956       C1149   1.477       .  S
O957        C967   1.280       .  A
O957      Ni1373   1.911   1_545  S
O958        C968   1.280       .  A
O958       Ni965   1.909       .  S
O959       C1377   1.280       .  A
O959       Ni965   1.917       .  S
O960       C1378   1.282       .  A
O960       Ni965   1.919       .  S
O961        C970   1.280       .  A
O961       Ni966   1.914       .  S
O962        C969   1.279   1_545  A
O962       Ni966   1.912       .  S
O963        C968   1.283       .  A
O963      Ni1374   1.922       .  S
O964        C967   1.284       .  A
O964       Ni966   1.924       .  S
Ni965      O1365   1.911       .  S
Ni965     Ni1374   2.387       .  S
Ni966      O1371   1.922   1_545  S
Ni966     Ni1373   2.387   1_545  S
C967        C996   1.487       .  S
C968        C989   1.484       .  S
C969       O1367   1.280       .  A
C969       C1039   1.463       .  S
C970       O1368   1.282   1_545  A
C970       C1129   1.477       .  S
O971        C981   1.283       .  A
O971       Ni979   1.922       .  S
O972        C982   1.282       .  A
O972       Ni979   1.920       .  S
O973        C983   1.282       .  A
O973       Ni979   1.919       .  S
O974        C984   1.281       .  A
O974       Ni979   1.916       .  S
O975        C984   1.281       .  A
O975       Ni980   1.914       .  S
O976        C983   1.281       .  A
O976       Ni980   1.914       .  S
O977        C982   1.281       .  A
O977       Ni980   1.909       .  S
O978        C981   1.280       .  A
O978       Ni980   1.913       .  S
Ni979      Ni980   2.386       .  S
C981        C999   1.486       .  S
C982        C986   1.483       .  S
C983       C1109   1.479       .  S
C984       C1026   1.478       .  S
C985        C986   1.407       .  A
C985        C990   1.396       .  A
C985        H992   1.082       .  S
C986        C987   1.408       .  A
C987        C988   1.399       .  A
C987        F994   1.358       .  S
C988        C989   1.408       .  A
C988        H993   1.082       .  S
C989        C990   1.407       .  A
C990        F991   1.357       .  S
C995        C996   1.405       .  A
C995       C1000   1.400       .  A
C995       H1002   1.082       .  S
C996        C997   1.411       .  A
C997        C998   1.398       .  A
C997       F1004   1.357       .  S
C998        C999   1.405       .  A
C998       H1003   1.082       .  S
C999       C1000   1.411       .  A
C1000      F1001   1.357       .  S
C1005      C1010   1.397       .  A
C1005      H1012   1.082       .  S
C1006      C1007   1.410       .  A
C1007      C1008   1.399       .  A
C1007      F1014   1.358       .  S
C1008      C1009   1.406       .  A
C1008      H1013   1.082       .  S
C1010      F1011   1.357       .  S
C1015      C1016   1.405   1_655  A
C1015      C1020   1.397       .  A
C1015      H1022   1.082       .  S
C1017      C1018   1.399       .  A
C1017      F1024   1.358       .  S
C1018      H1023   1.082       .  S
C1019      C1020   1.410   1_455  A
C1020      F1021   1.357       .  S
C1025      C1026   1.406       .  A
C1025      C1030   1.398       .  A
C1025      H1032   1.083       .  S
C1026      C1027   1.407       .  A
C1027      C1028   1.396       .  A
C1027      F1034   1.357       .  S
C1028      C1029   1.403       .  A
C1028      H1033   1.083       .  S
C1029      C1030   1.406       .  A
C1030      F1031   1.358       .  S
C1035      C1444   1.408       .  A
C1035      C1040   1.398       .  A
C1035      H1042   1.085       .  S
C1036      C1443   1.408       .  A
C1036      C1037   1.411   1_565  A
C1037      C1038   1.396       .  A
C1037      F1044   1.357       .  S
C1038      C1039   1.398   1_545  A
C1038      H1043   1.085       .  S
C1039      C1448   1.401       .  A
C1040      C1447   1.401       .  A
C1040      F1041   1.358       .  S
C1045      C1046   1.406   1_556  A
C1045      C1050   1.398       .  A
C1045      H1052   1.082       .  S
C1046      C1047   1.409       .  A
C1047      C1048   1.398       .  A
C1047      F1054   1.357       .  S
C1048      C1049   1.406       .  A
C1048      H1053   1.082       .  S
C1049      C1050   1.409   1_554  A
C1050      F1051   1.358       .  S
C1055      C1056   1.406       .  A
C1055      C1060   1.397   1_556  A
C1055      H1062   1.082   1_556  S
C1056      C1057   1.409       .  A
C1057      C1058   1.397       .  A
C1057      F1064   1.357       .  S
C1058      C1059   1.406       .  A
C1058      H1063   1.082       .  S
C1059      C1060   1.409   1_556  A
C1060      F1061   1.357       .  S
C1065      C1070   1.400       .  A
C1065      H1072   1.085       .  S
C1066      C1067   1.401   1_455  A
C1067      C1068   1.396       .  A
C1067      F1074   1.357       .  S
C1068      C1069   1.407   1_655  A
C1068      H1073   1.085       .  S
C1070      F1071   1.358       .  S
C1075      C1076   1.406       .  A
C1075      C1080   1.398       .  A
C1075      H1082   1.082       .  S
C1076      C1485   1.409       .  A
C1077      C1484   1.409   1_545  A
C1077      C1078   1.397       .  A
C1077      F1084   1.357       .  S
C1078      C1079   1.406   1_545  A
C1078      H1083   1.082       .  S
C1079      C1488   1.410       .  A
C1080      C1487   1.410       .  A
C1080      F1081   1.358       .  S
C1085      C1494   1.407   1_545  A
C1085      C1090   1.397   1_556  A
C1085      H1092   1.082   1_556  S
C1086      C1493   1.407       .  A
C1086      C1087   1.409       .  A
C1087      C1088   1.397       .  A
C1087      F1094   1.357       .  S
C1088      C1497   1.406       .  A
C1088      H1093   1.082       .  S
C1089      C1496   1.406   1_545  A
C1089      C1090   1.409   1_556  A
C1090      F1091   1.358       .  S
C1095      C1100   1.397       .  A
C1095      H1102   1.085       .  S
C1096      C1097   1.403       .  A
C1097      C1098   1.397       .  A
C1097      F1104   1.358       .  S
C1098      C1099   1.407       .  A
C1098      H1103   1.084       .  S
C1099      C1349   1.482       .  S
C1100      F1101   1.357       .  S
C1105      C1106   1.404       .  A
C1105      C1110   1.398       .  A
C1105      H1112   1.084       .  S
C1106      C1107   1.407       .  A
C1107      C1108   1.399       .  A
C1107      F1114   1.358       .  S
C1108      C1109   1.405       .  A
C1108      H1113   1.084       .  S
C1109      C1110   1.408       .  A
C1110      F1111   1.357       .  S
C1115      C1116   1.407       .  A
C1115      C1120   1.398       .  A
C1115      H1122   1.085       .  S
C1116      C1117   1.411       .  A
C1117      C1118   1.398       .  A
C1117      F1124   1.357       .  S
C1118      C1119   1.401       .  A
C1118      H1123   1.085       .  S
C1119      C1120   1.404       .  A
C1120      F1121   1.358       .  S
C1125      C1126   1.405       .  A
C1125      C1130   1.400       .  A
C1125      H1132   1.084       .  S
C1126      C1535   1.409   1_565  A
C1127      C1534   1.409       .  A
C1127      C1128   1.396       .  A
C1127      F1134   1.357       .  S
C1128      C1537   1.402       .  A
C1128      H1133   1.084       .  S
C1129      C1536   1.402       .  A
C1129      C1130   1.408   1_545  A
C1130      F1131   1.358       .  S
C1135      C1544   1.403       .  A
C1135      C1140   1.397       .  A
C1135      H1142   1.084       .  S
C1136      C1543   1.403   1_545  A
C1136      C1137   1.407       .  A
C1137      C1138   1.400       .  A
C1137      F1144   1.358       .  S
C1138      C1139   1.406   1_545  A
C1138      H1143   1.084       .  S
C1139      C1548   1.407       .  A
C1140      C1547   1.407       .  A
C1140      F1141   1.357       .  S
C1145      C1146   1.406       .  A
C1145      C1150   1.399       .  A
C1145      H1152   1.085       .  S
C1147      C1148   1.397       .  A
C1147      F1154   1.357       .  S
C1148      H1153   1.085       .  S
C1149      C1150   1.407       .  A
C1150      F1151   1.358       .  S
C1155      C1156   1.406       .  A
C1155      C1160   1.397       .  A
C1155      H1162   1.082       .  S
C1156      C1157   1.409       .  A
C1157      C1158   1.398       .  A
C1157      F1164   1.357       .  S
C1158      C1159   1.406       .  A
C1158      H1163   1.082       .  S
C1159      C1160   1.409       .  A
C1160      F1161   1.357       .  S
C1165      C1166   1.407       .  A
C1165      C1170   1.400       .  A
C1165      H1172   1.082       .  S
C1166      C1167   1.409       .  A
C1167      C1168   1.397       .  A
C1167      F1174   1.357       .  S
C1168      C1169   1.406       .  A
C1168      H1173   1.082       .  S
C1169      C1170   1.410       .  A
C1170      F1171   1.358       .  S
C1175      C1176   1.406       .  A
C1175      C1180   1.397       .  A
C1175      H1182   1.085       .  S
C1177      C1178   1.398       .  A
C1177      F1184   1.357       .  S
C1178      H1183   1.085       .  S
C1179      C1180   1.405       .  A
C1180      F1181   1.358       .  S
C1185      C1594   1.407   1_545  A
C1185      C1190   1.398       .  A
C1185      H1192   1.084       .  S
C1186      C1593   1.407       .  A
C1187      C1188   1.397       .  A
C1187      F1194   1.357       .  S
C1188      H1193   1.085       .  S
C1189      C1190   1.405       .  A
C1190      F1191   1.358       .  S
C1195      C1196   1.407       .  A
C1195      C1200   1.398       .  A
C1195      H1202   1.082       .  S
C1196      C1197   1.408       .  A
C1197      C1198   1.397       .  A
C1197      F1204   1.358       .  S
C1198      C1199   1.407       .  A
C1198      H1203   1.082       .  S
C1199      C1200   1.408       .  A
C1200      F1201   1.357       .  S
C1205      C1206   1.407       .  A
C1205      C1210   1.398       .  A
C1205      H1212   1.082       .  S
C1206      C1207   1.409       .  A
C1207      C1208   1.399       .  A
C1207      F1214   1.357       .  S
C1208      C1209   1.408       .  A
C1208      H1213   1.082       .  S
C1209      C1210   1.408       .  A
C1210      F1211   1.357       .  S
C1215      C1220   1.400       .  A
C1215      H1222   1.084       .  S
C1216      C1625   1.409   1_655  A
C1217      C1624   1.409   1_445  A
C1217      C1218   1.396       .  A
C1217      F1224   1.357       .  S
C1218      C1627   1.402   1_545  A
C1218      H1223   1.084       .  S
C1219      C1626   1.402       .  A
C1220      F1221   1.358       .  S
O1225      C1235   1.282       .  A
O1226      C1236   1.283       .  A
O1227     Ni1233   1.917       .  S
O1228      C1238   1.281       .  A
O1228     Ni1233   1.919       .  S
O1229     Ni1234   1.915       .  S
O1230     Ni1234   1.917       .  S
O1231      C1236   1.281       .  A
O1232      C1235   1.281       .  A
C1235      C1604   1.484       .  S
C1236      C1614   1.486       .  S
C1237      C1594   1.482       .  S
O1239      C1249   1.282       .  A
O1240      C1250   1.282       .  A
O1240     Ni1247   1.917       .  S
O1241      C1251   1.282       .  A
O1241     Ni1247   1.919       .  S
O1242      C1252   1.282       .  A
O1242     Ni1247   1.919       .  S
O1243     Ni1248   1.915       .  S
O1244     Ni1248   1.914       .  S
O1245      C1250   1.282       .  A
O1246      C1249   1.281       .  A
O1246     Ni1248   1.916       .  S
C1249      C1564   1.484       .  S
C1250      C1574   1.486       .  S
C1252      C1584   1.482       .  S
O1253      C1263   1.282       .  A
O1253     Ni1261   1.917       .  S
O1254      C1264   1.283       .  A
O1255      C1265   1.280       .  A
O1255     Ni1261   1.912       .  S
O1256      C1266   1.280       .  A
O1256     Ni1261   1.914       .  S
O1257     Ni1262   1.922       .  S
O1258     Ni1262   1.923       .  S
O1259      C1264   1.281       .  A
O1259     Ni1262   1.917       .  S
O1260      C1263   1.281       .  A
C1263      C1567   1.484       .  S
C1264      C1577   1.486       .  S
C1265      C1534   1.481       .  S
C1266      C1547   1.480       .  S
O1267      C1277   1.282       .  A
O1267     Ni1275   1.918       .  S
O1268      C1278   1.282       .  A
O1268     Ni1275   1.918       .  S
O1269      C1279   1.281       .  A
O1269     Ni1275   1.913       .  S
O1270      C1280   1.280       .  A
O1270     Ni1275   1.910       .  S
O1271      C1280   1.283       .  A
O1271     Ni1276   1.924       .  S
O1272      C1279   1.283       .  A
O1272     Ni1276   1.922       .  S
O1273      C1278   1.281       .  A
O1273     Ni1276   1.917       .  S
O1274      C1277   1.281       .  A
O1274     Ni1276   1.915       .  S
Ni1275    Ni1276   2.385       .  S
C1277      C1524   1.483       .  S
C1278      C1514   1.478       .  S
C1279      C1617   1.486       .  S
C1280      C1607   1.485       .  S
O1281      C1291   1.282       .  A
O1282      C1292   1.282       .  A
O1282     Ni1289   1.916       .  S
O1283      C1293   1.280       .  A
O1283     Ni1289   1.915       .  S
O1284      C1294   1.281       .  A
O1284     Ni1289   1.917   1_554  S
O1285     Ni1290   1.915   1_554  S
O1286     Ni1290   1.915       .  S
O1288     Ni1290   1.913       .  S
C1291      C1494   1.483       .  S
C1292      C1484   1.484   1_556  S
C1293      C1504   1.468       .  S
C1294      C1624   1.481       .  S
O1295      C1305   1.282       .  A
O1295     Ni1303   1.917       .  S
O1296      C1306   1.282       .  A
O1297      C1307   1.281       .  A
O1297     Ni1303   1.917   1_554  S
O1298     Ni1303   1.919       .  S
O1299      C1308   1.280   1_655  A
O1299     Ni1304   1.913       .  S
O1300     Ni1304   1.914   1_554  S
O1301      C1306   1.281       .  A
O1301     Ni1304   1.915       .  S
O1302      C1305   1.282       .  A
C1305      C1464   1.484       .  S
C1306      C1454   1.484   1_556  S
C1307      C1587   1.472       .  S
C1308      C1474   1.467       .  S
O1309      C1319   1.281       .  A
O1309     Ni1317   1.915       .  S
O1310      C1320   1.283       .  A
O1310     Ni1317   1.919       .  S
O1311      C1321   1.281       .  A
O1311     Ni1317   1.914   1_556  S
O1312      C1322   1.281       .  A
O1312     Ni1317   1.917       .  S
O1313     Ni1318   1.917       .  S
O1314     Ni1318   1.917   1_556  S
O1315     Ni1318   1.914       .  S
O1316     Ni1318   1.915       .  S
C1319      C1497   1.483   1_554  S
C1320      C1487   1.485       .  S
C1321      C1444   1.482       .  S
C1322      C1544   1.477       .  S
O1323      C1333   1.282       .  A
O1323     Ni1331   1.915       .  S
O1324      C1334   1.282       .  A
O1324     Ni1331   1.917       .  S
O1325      C1335   1.281       .  A
O1325     Ni1331   1.917   1_556  S
O1326      C1336   1.281       .  A
O1326     Ni1331   1.916       .  S
O1327      C1336   1.280       .  A
O1327     Ni1332   1.915       .  S
O1328      C1335   1.281       .  A
O1328     Ni1332   1.913   1_556  S
O1329      C1334   1.281       .  A
O1329     Ni1332   1.916       .  S
O1330      C1333   1.282       .  A
O1330     Ni1332   1.917       .  S
Ni1331    Ni1332   2.387       .  S
C1333      C1467   1.484   1_554  S
C1334      C1457   1.484       .  S
C1335      C1437   1.474       .  S
C1336      C1527   1.470       .  S
O1338     Ni1345   1.920       .  S
O1339     Ni1345   1.915       .  S
O1340     Ni1345   1.915       .  S
O1341     Ni1346   1.916       .  S
O1342     Ni1346   1.916       .  S
O1343      C1348   1.281   1_655  A
O1344      C1347   1.281       .  A
O1344     Ni1346   1.916       .  S
C1347      C1414   1.484       .  S
C1348      C1427   1.485       .  S
C1350      C1597   1.473       .  S
O1351     Ni1359   1.914       .  S
O1352     Ni1359   1.916       .  S
O1353     Ni1359   1.916       .  S
O1354     Ni1359   1.915       .  S
O1355      C1364   1.281       .  A
O1355     Ni1360   1.918       .  S
O1356      C1363   1.282   1_655  A
O1356     Ni1360   1.917       .  S
O1357      C1362   1.282       .  A
O1357     Ni1360   1.918       .  S
O1358      C1361   1.283   1_655  A
O1358     Ni1360   1.918       .  S
C1361      C1424   1.484       .  S
C1362      C1417   1.485       .  S
C1363      C1477   1.484       .  S
C1364      C1557   1.477       .  S
O1365      C1375   1.280       .  A
O1366      C1376   1.280       .  A
O1366     Ni1373   1.909       .  S
O1367     Ni1373   1.917       .  S
O1368     Ni1373   1.919       .  S
O1369      C1378   1.280       .  A
O1369     Ni1374   1.914       .  S
O1370      C1377   1.279       .  A
O1370     Ni1374   1.912       .  S
O1371      C1376   1.283       .  A
O1372      C1375   1.284       .  A
O1372     Ni1374   1.924       .  S
C1375      C1404   1.487       .  S
C1376      C1397   1.484       .  S
C1377      C1447   1.463       .  S
C1378      C1537   1.477       .  S
O1379      C1389   1.283       .  A
O1379     Ni1387   1.922       .  S
O1380      C1390   1.282       .  A
O1380     Ni1387   1.920       .  S
O1381      C1391   1.282       .  A
O1381     Ni1387   1.919       .  S
O1382      C1392   1.281       .  A
O1382     Ni1387   1.916       .  S
O1383      C1392   1.281       .  A
O1383     Ni1388   1.914       .  S
O1384      C1391   1.281       .  A
O1384     Ni1388   1.914       .  S
O1385      C1390   1.281       .  A
O1385     Ni1388   1.909       .  S
O1386      C1389   1.280       .  A
O1386     Ni1388   1.913       .  S
Ni1387    Ni1388   2.385       .  S
C1389      C1407   1.486       .  S
C1390      C1394   1.483       .  S
C1391      C1517   1.479       .  S
C1392      C1434   1.478       .  S
C1393      C1394   1.407       .  A
C1393      C1398   1.396       .  A
C1393      H1400   1.082       .  S
C1394      C1395   1.408       .  A
C1395      C1396   1.399       .  A
C1395      F1402   1.358       .  S
C1396      C1397   1.408       .  A
C1396      H1401   1.082       .  S
C1397      C1398   1.407       .  A
C1398      F1399   1.357       .  S
C1403      C1404   1.405       .  A
C1403      C1408   1.400       .  A
C1403      H1410   1.082       .  S
C1404      C1405   1.411       .  A
C1405      C1406   1.398       .  A
C1405      F1412   1.357       .  S
C1406      C1407   1.405       .  A
C1406      H1411   1.082       .  S
C1407      C1408   1.411       .  A
C1408      F1409   1.357       .  S
C1413      C1418   1.397       .  A
C1413      H1420   1.082       .  S
C1414      C1415   1.410       .  A
C1415      C1416   1.399       .  A
C1415      F1422   1.358       .  S
C1416      C1417   1.406       .  A
C1416      H1421   1.082       .  S
C1418      F1419   1.357       .  S
C1423      C1424   1.405   1_655  A
C1423      C1428   1.397       .  A
C1423      H1430   1.082       .  S
C1425      C1426   1.399       .  A
C1425      F1432   1.358       .  S
C1426      H1431   1.082       .  S
C1427      C1428   1.410   1_455  A
C1428      F1429   1.357       .  S
C1433      C1434   1.406       .  A
C1433      C1438   1.398       .  A
C1433      H1440   1.083       .  S
C1434      C1435   1.407       .  A
C1435      C1436   1.396       .  A
C1435      F1442   1.357       .  S
C1436      C1437   1.403       .  A
C1436      H1441   1.083       .  S
C1437      C1438   1.406       .  A
C1438      F1439   1.358       .  S
C1443      C1448   1.398       .  A
C1443      H1450   1.085       .  S
C1444      C1445   1.411       .  A
C1445      C1446   1.396       .  A
C1445      F1452   1.357       .  S
C1446      C1447   1.398       .  A
C1446      H1451   1.085       .  S
C1448      F1449   1.358       .  S
C1453      C1454   1.406   1_556  A
C1453      C1458   1.398       .  A
C1453      H1460   1.082       .  S
C1454      C1455   1.409       .  A
C1455      C1456   1.398       .  A
C1455      F1462   1.357       .  S
C1456      C1457   1.406       .  A
C1456      H1461   1.082       .  S
C1457      C1458   1.409   1_554  A
C1458      F1459   1.358       .  S
C1463      C1464   1.406       .  A
C1463      C1468   1.397   1_556  A
C1463      H1470   1.082   1_556  S
C1464      C1465   1.409       .  A
C1465      C1466   1.397       .  A
C1465      F1472   1.357       .  S
C1466      C1467   1.406       .  A
C1466      H1471   1.082       .  S
C1467      C1468   1.409   1_556  A
C1468      F1469   1.357       .  S
C1473      C1478   1.400       .  A
C1473      H1480   1.085       .  S
C1474      C1475   1.401   1_455  A
C1475      C1476   1.396       .  A
C1475      F1482   1.357       .  S
C1476      C1477   1.407   1_655  A
C1476      H1481   1.085       .  S
C1478      F1479   1.358       .  S
C1483      C1484   1.406       .  A
C1483      C1488   1.398       .  A
C1483      H1490   1.082       .  S
C1485      C1486   1.397       .  A
C1485      F1492   1.357       .  S
C1486      C1487   1.406       .  A
C1486      H1491   1.082       .  S
C1488      F1489   1.358       .  S
C1493      C1498   1.397   1_556  A
C1493      H1500   1.082   1_556  S
C1494      C1495   1.409       .  A
C1495      C1496   1.397       .  A
C1495      F1502   1.357       .  S
C1496      H1501   1.082       .  S
C1497      C1498   1.409   1_556  A
C1498      F1499   1.358       .  S
C1503      C1508   1.397       .  A
C1503      H1510   1.085       .  S
C1504      C1505   1.403       .  A
C1505      C1506   1.397       .  A
C1505      F1512   1.358       .  S
C1506      C1507   1.407       .  A
C1506      H1511   1.084       .  S
C1508      F1509   1.357       .  S
C1513      C1514   1.404       .  A
C1513      C1518   1.398       .  A
C1513      H1520   1.084       .  S
C1514      C1515   1.407       .  A
C1515      C1516   1.399       .  A
C1515      F1522   1.358       .  S
C1516      C1517   1.405       .  A
C1516      H1521   1.084       .  S
C1517      C1518   1.408       .  A
C1518      F1519   1.357       .  S
C1523      C1524   1.407       .  A
C1523      C1528   1.398       .  A
C1523      H1530   1.085       .  S
C1524      C1525   1.411       .  A
C1525      C1526   1.398       .  A
C1525      F1532   1.357       .  S
C1526      C1527   1.401       .  A
C1526      H1531   1.085       .  S
C1527      C1528   1.404       .  A
C1528      F1529   1.358       .  S
C1533      C1534   1.405       .  A
C1533      C1538   1.400       .  A
C1533      H1540   1.084       .  S
C1535      C1536   1.396       .  A
C1535      F1542   1.357       .  S
C1536      H1541   1.084       .  S
C1537      C1538   1.408       .  A
C1538      F1539   1.358       .  S
C1543      C1548   1.397       .  A
C1543      H1550   1.084       .  S
C1544      C1545   1.407       .  A
C1545      C1546   1.400       .  A
C1545      F1552   1.358       .  S
C1546      C1547   1.406       .  A
C1546      H1551   1.084       .  S
C1548      F1549   1.357       .  S
C1553      C1554   1.406       .  A
C1553      C1558   1.399       .  A
C1553      H1560   1.085       .  S
C1555      C1556   1.397       .  A
C1555      F1562   1.357       .  S
C1556      H1561   1.085       .  S
C1557      C1558   1.407       .  A
C1558      F1559   1.358       .  S
C1563      C1564   1.406       .  A
C1563      C1568   1.397       .  A
C1563      H1570   1.082       .  S
C1564      C1565   1.409       .  A
C1565      C1566   1.398       .  A
C1565      F1572   1.357       .  S
C1566      C1567   1.406       .  A
C1566      H1571   1.082       .  S
C1567      C1568   1.409       .  A
C1568      F1569   1.357       .  S
C1573      C1574   1.407       .  A
C1573      C1578   1.400       .  A
C1573      H1580   1.082       .  S
C1574      C1575   1.409       .  A
C1575      C1576   1.397       .  A
C1575      F1582   1.357       .  S
C1576      C1577   1.406       .  A
C1576      H1581   1.082       .  S
C1577      C1578   1.410       .  A
C1578      F1579   1.358       .  S
C1583      C1584   1.406       .  A
C1583      C1588   1.397       .  A
C1583      H1590   1.085       .  S
C1585      C1586   1.398       .  A
C1585      F1592   1.357       .  S
C1586      H1591   1.085       .  S
C1587      C1588   1.405       .  A
C1588      F1589   1.358       .  S
C1593      C1598   1.398       .  A
C1593      H1600   1.084       .  S
C1595      C1596   1.397       .  A
C1595      F1602   1.357       .  S
C1596      H1601   1.085       .  S
C1597      C1598   1.405       .  A
C1598      F1599   1.358       .  S
C1603      C1604   1.407       .  A
C1603      C1608   1.398       .  A
C1603      H1610   1.082       .  S
C1604      C1605   1.408       .  A
C1605      C1606   1.397       .  A
C1605      F1612   1.358       .  S
C1606      C1607   1.407       .  A
C1606      H1611   1.082       .  S
C1607      C1608   1.408       .  A
C1608      F1609   1.357       .  S
C1613      C1614   1.407       .  A
C1613      C1618   1.398       .  A
C1613      H1620   1.082       .  S
C1614      C1615   1.409       .  A
C1615      C1616   1.399       .  A
C1615      F1622   1.357       .  S
C1616      C1617   1.408       .  A
C1616      H1621   1.082       .  S
C1617      C1618   1.408       .  A
C1618      F1619   1.357       .  S
C1623      C1628   1.400       .  A
C1623      H1630   1.084       .  S
C1625      C1626   1.396       .  A
C1625      F1632   1.357       .  S
C1626      H1631   1.084       .  S
C1628      F1629   1.358       .  S
