geometry optimzed in LAMMPS
_audit_creation_date              2020-11-30 
_audit_creation_method            'lammps2cif' 
_symmetry_space_group_name_H-M    'P1' 
_symmetry_Int_Tables_number       1 
_symmetry_cell_setting            triclinic 
loop_ 
_symmetry_equiv_pos_as_xyz 
  x,y,z 
_cell_length_a                    44.55346166 
_cell_length_b                    44.453927852680664 
_cell_length_c                    91.80244404935983 
_cell_angle_alpha                 89.94474392247656 
_cell_angle_beta                  90.0644809456731 
_cell_angle_gamma                 119.95573601435697 
loop_ 
_atom_site_label 
_atom_site_type_symbol 
_atom_site_fract_x 
_atom_site_fract_y 
_atom_site_fract_z 
_atom_site_charge 
C1          C  0.27996040  0.28053921  0.40698912     0.03100
C2          C  0.27945409  0.28168264  0.42240208     0.03100
C3          C  0.25144843  0.25502238  0.42995371    -0.17400
C4          C  0.22494028  0.22644084  0.42270450     0.03100
C5          C  0.22513936  0.22486478  0.40732344     0.03100
C6          C  0.25255527  0.25231657  0.39963902    -0.17400
H7          H  0.25283352  0.25150656  0.38784581     0.05100
H8          H  0.25058051  0.25612242  0.44173453     0.05100
C9          C  0.00965843  0.28128949  0.59666055     0.03100
C10         C  0.00391766  0.28084804  0.61188391     0.03100
C11         C  0.99924819  0.25189468  0.62000632    -0.17400
C12         C  0.00049774  0.22408420  0.61335378     0.03100
C13         C  0.00664598  0.22504917  0.59821859     0.03100
C14         C  0.01115969  0.25363120  0.59011269    -0.17400
H15         H  0.01500189  0.25393645  0.57843628     0.05100
H16         H  0.99367015  0.25047372  0.63155184     0.05100
In17       In  0.50326195  0.00172904  0.51009431     1.36900
C18         C  0.00319512  0.04478040  0.53018909     0.78400
O19         O  0.48058278  0.45983319  0.52675623    -0.60000
O20         O  0.03312875  0.47925153  0.52094397    -0.50900
C21         C  0.45537347  0.45914777  0.49122064     0.71100
O22         O  0.45115695  0.48005476  0.49910011    -0.45800
C23         C  0.04842785  0.04632262  0.49101174     0.75800
O24         O  0.47575002  0.02229904  0.52394509    -0.57700
O25         O  0.05136525  0.02175198  0.49640555    -0.47700
O26         O  0.03029861  0.04508335  0.52600429    -0.54100
C27         C  0.00789502  0.45861508  0.52881497     0.86000
O28         O  0.48384590  0.46015645  0.49320631    -0.56000
O29         O  0.02229004  0.04780676  0.49528889    -0.59300
C30         C  0.94892538  0.25288724  0.73979310     0.03100
C31         C  0.95843402  0.25792203  0.75479158     0.03100
C32         C  0.96491666  0.23357303  0.76181356    -0.17400
C33         C  0.96132286  0.20416118  0.75461175     0.03100
C34         C  0.95118389  0.19884969  0.73985347     0.03100
C35         C  0.94503165  0.22307920  0.73265621    -0.17400
H36         H  0.93818078  0.21922418  0.72119627     0.05100
H37         H  0.47320489  0.23767191  0.77310060     0.05100
In38       In  0.50706335  0.50503987  0.84019084     1.36900
C39         C  0.49507801  0.45459311  0.82148392     0.78400
O40         O  0.47536727  0.01986795  0.82651909    -0.60000
O41         O  0.03019396  0.05219374  0.82562070    -0.50900
C42         C  0.47083009  0.01108114  0.86174983     0.71100
O43         O  0.46283286  0.48209259  0.85605714    -0.45800
C44         C  0.05776050  0.00833176  0.85659848     0.75800
O45         O  0.47227636  0.45262921  0.83023456    -0.57700
O46         O  0.06268480  0.03228317  0.84777316    -0.47700
O47         O  0.02405341  0.48194076  0.82266842    -0.54100
C48         C  0.00087871  0.04639668  0.82114124     0.86000
O49         O  0.49770056  0.03663230  0.85654228    -0.56000
O50         O  0.02719470  0.48301283  0.85671541    -0.59300
C51         C  0.23946415  0.01955301  0.92616346     0.03100
C52         C  0.23734951  0.01784941  0.94153921     0.03100
C53         C  0.26409037  0.01722389  0.94952666    -0.17400
C54         C  0.29243161  0.01775503  0.94248824     0.03100
C55         C  0.29489225  0.02066956  0.92710914     0.03100
C56         C  0.26829698  0.02139981  0.91919030    -0.17400
H57         H  0.26966901  0.02266233  0.90739587     0.05100
H58         H  0.26238637  0.01542702  0.96130043     0.05100
C59         C  0.28607613  0.27335374  0.27808253     0.03100
C60         C  0.28707382  0.27292640  0.26270656     0.03100
C61         C  0.25979169  0.24587718  0.25504867    -0.17400
C62         C  0.23143527  0.21899404  0.26229930     0.03100
C63         C  0.23086205  0.21861393  0.27772868     0.03100
C64         C  0.25817437  0.24595372  0.28541873    -0.17400
H65         H  0.25752657  0.24610109  0.29722155     0.05100
H66         H  0.26042998  0.24603531  0.24323758     0.05100
C67         C  0.47778424  0.47218682  0.35004316     0.03100
C68         C  0.47712853  0.47297094  0.33458722     0.03100
C69         C  0.50415039  0.50138456  0.32721258    -0.17400
C70         C  0.03166229  0.02890187  0.33476829     0.03100
C71         C  0.03159429  0.02834721  0.35020183     0.03100
C72         C  0.50482238  0.50002031  0.35757993    -0.17400
H73         H  0.50507368  0.49962363  0.36939730     0.05100
H74         H  0.50396892  0.50192217  0.31541016     0.05100
In75       In  0.50646374  0.99735657  0.17508803     1.36900
C76         C  0.05146914  0.04238163  0.19413632     0.78400
O77         O  0.46725035  0.47958381  0.19280467    -0.60000
O78         O  0.47955302  0.44274415  0.18435232    -0.50900
C79         C  0.46307175  0.00276487  0.15682196     0.71100
O80         O  0.47878316  0.02452607  0.16683933    -0.45800
C81         C  0.05157534  0.49885977  0.15589514     0.75800
O82         O  0.03228895  0.04919234  0.18629560    -0.57700
O83         O  0.03484585  0.47337404  0.16436924    -0.47700
O84         O  0.04778463  0.01274716  0.19195677    -0.54100
C85         C  0.46254969  0.44926558  0.19359650     0.86000
O86         O  0.46926588  0.47799387  0.15636685    -0.56000
O87         O  0.04520461  0.02332903  0.15733972    -0.59300
C88         C  0.23361877  0.50722694  0.08805951     0.03100
C89         C  0.23359060  0.50815633  0.07266564     0.03100
C90         C  0.26162281  0.50938269  0.06506268    -0.17400
C91         C  0.28957374  0.50976043  0.07244110     0.03100
C92         C  0.28958698  0.50951551  0.08787037     0.03100
C93         C  0.26161503  0.50812175  0.09544324    -0.17400
H94         H  0.26155925  0.50757867  0.10725846     0.05100
H95         H  0.26159045  0.50986332  0.05325565     0.05100
C96         C  0.03928762  0.00917015  0.99961116     0.03100
C97         C  0.03901795  0.00899505  0.01508304     0.03100
C98         C  0.51146880  0.00947439  0.02238742    -0.17400
C99         C  0.48397718  0.00961423  0.01481716     0.03100
C100        C  0.48425345  0.00966056  0.99935197     0.03100
C101        C  0.51216861  0.01004126  0.99204843    -0.17400
H102        H  0.51267907  0.01084234  0.98024144     0.05100
H103        H  0.51136556  0.00961531  0.03419398     0.05100
C104        C  0.96417043  0.45570538  0.66731816     0.03100
C105        C  0.95419202  0.44995542  0.68212914     0.03100
C106        C  0.94895999  0.97440960  0.68970408    -0.17400
C107        C  0.95360023  0.00478183  0.68289294     0.03100
C108        C  0.96372228  0.01058027  0.66802186     0.03100
C109        C  0.96852001  0.98581432  0.66042900    -0.17400
H110        H  0.97635650  0.99033844  0.64909328     0.05100
H111        H  0.94187280  0.97005571  0.70112316     0.05100
C112        C  0.42080260  0.03770291  0.02830187    -0.01200
C113        C  0.40189510  0.01245144  0.03902348     0.07400
C114        C  0.41002330  0.48627256  0.04174525    -0.07100
C115        C  0.43663737  0.48507211  0.03409700     0.04900
C116        C  0.45572003  0.01036757  0.02335874    -0.14400
C117        C  0.44763856  0.03670818  0.02071224    -0.07700
C118        C  0.37336709  0.01253899  0.04748357     0.05800
C119        C  0.33932845  0.48504484  0.04566662    -0.08800
C120        C  0.31187707  0.48361186  0.05371982     0.00800
C121        C  0.31818906  0.51020409  0.06378499     0.00700
C122        C  0.35224414  0.03783958  0.06548359    -0.12400
C123        C  0.37977572  0.03887700  0.05765855     0.01100
C124        C  0.27758161  0.45415071  0.05172313     0.40400
C125        C  0.41454139  0.06651052  0.06065260     0.37100
C126        C  0.41247588  0.06427891  0.02462730     0.36800
C127        C  0.44322269  0.45704873  0.03723087     0.37500
N128        N  0.25004403  0.43060893  0.05013818    -0.43300
N129        N  0.44243397  0.08854208  0.06311697    -0.43700
N130        N  0.44871342  0.43472807  0.03973697    -0.41100
N131        N  0.40571544  0.08552698  0.02168961    -0.42500
H132        H  0.46224211  0.05649787  0.01263748     0.13700
H133        H  0.39549537  0.46669909  0.04991695     0.10200
H134        H  0.33424231  0.46450782  0.03798275     0.11200
H135        H  0.35740667  0.05872292  0.07295454     0.17000
C136        C  0.10031279  0.47913999  0.02949904    -0.01200
C137        C  0.11954537  0.50460830  0.04011188     0.07400
C138        C  0.11218589  0.03144441  0.04245178    -0.07100
C139        C  0.08622754  0.03324358  0.03449716     0.04900
C140        C  0.06672153  0.00769331  0.02391479    -0.14400
C141        C  0.07395350  0.48062275  0.02165880    -0.07700
C142        C  0.14838527  0.50477439  0.04850349     0.05800
C143        C  0.18208700  0.03311849  0.04696643    -0.08800
C144        C  0.20991114  0.03485180  0.05484797     0.00800
C145        C  0.20448172  0.50749750  0.06429921     0.00700
C146        C  0.17075214  0.47913045  0.06582019    -0.12400
C147        C  0.14272657  0.47796831  0.05832414     0.01100
C148        C  0.24355998  0.06556576  0.05346203     0.40400
C149        C  0.10824646  0.44990267  0.06142271     0.37100
C150        C  0.10811342  0.45208728  0.02606314     0.36800
C151        C  0.08103624  0.06234055  0.03708864     0.37500
N152        N  0.27049703  0.09026187  0.05241275    -0.43300
N153        N  0.08059211  0.42756371  0.06401618    -0.43700
N154        N  0.07695006  0.08569173  0.03924082    -0.41100
N155        N  0.11451780  0.43049935  0.02332961    -0.42500
H156        H  0.05922308  0.46080401  0.01361008     0.13700
H157        H  0.12705440  0.05129715  0.05047576     0.10200
H158        H  0.18660302  0.05416835  0.03966362     0.11200
H159        H  0.16619722  0.45788503  0.07296822     0.17000
C160        C  0.41383191  0.99332458  0.12191986    -0.01200
C161        C  0.39445658  0.00958662  0.12543932     0.07400
C162        C  0.39841461  0.52433719  0.13934859    -0.07100
C163        C  0.42115278  0.52323078  0.14962058     0.04900
C164        C  0.43965933  0.00599171  0.14623661    -0.14400
C165        C  0.43574138  0.99126176  0.13234059    -0.07700
C166        C  0.36900352  0.01033225  0.11504451     0.05800
C167        C  0.34216123  0.47886162  0.10948016    -0.08800
C168        C  0.31668111  0.47822590  0.10029945     0.00800
C169        C  0.31769482  0.50944505  0.09654782     0.00700
C170        C  0.34427390  0.04088496  0.10213980    -0.12400
C171        C  0.37002963  0.04164100  0.11117974     0.01100
C172        C  0.28885627  0.44517693  0.09534867     0.40400
C173        C  0.39733729  0.07487660  0.11625703     0.37100
C174        C  0.41249079  0.97941740  0.10757190     0.36800
C175        C  0.42414531  0.53914557  0.16365401     0.37500
N176        N  0.26638084  0.41871688  0.09143749    -0.43300
N177        N  0.41917391  0.10147883  0.12038120    -0.43700
N178        N  0.42664965  0.55205275  0.17487390    -0.41100
N179        N  0.41157976  0.96831900  0.09607797    -0.42500
H180        H  0.45033161  0.97854766  0.12950343     0.13700
H181        H  0.38333739  0.53647151  0.14226551     0.10200
H182        H  0.34060787  0.45459563  0.11261082     0.11200
H183        H  0.34479129  0.06490924  0.09945985     0.17000
C184        C  0.12628618  0.99217606  0.14032871    -0.01200
C185        C  0.12859849  0.00477358  0.12598383     0.07400
C186        C  0.10502963  0.51521453  0.12148735    -0.07100
C187        C  0.07963067  0.51341383  0.13104231     0.04900
C188        C  0.07720559  0.50040786  0.14530024    -0.14400
C189        C  0.10045126  0.98966827  0.14974246    -0.07700
C190        C  0.15455643  0.00582225  0.11545473     0.05800
C191        C  0.15469855  0.47492136  0.11245003    -0.08800
C192        C  0.17991903  0.47484679  0.10341826     0.00800
C193        C  0.20512354  0.50596567  0.09685906     0.00700
C194        C  0.20442193  0.03671405  0.09940940    -0.12400
C195        C  0.17949229  0.03692705  0.10867463     0.01100
C196        C  0.17930151  0.44247021  0.10095614     0.40400
C197        C  0.18095944  0.06957288  0.11150965     0.37100
C198        C  0.15081107  0.98268064  0.14581620     0.36800
C199        C  0.05541723  0.52359907  0.12578769     0.37500
N200        N  0.17858740  0.41644065  0.09890792    -0.43300
N201        N  0.18214827  0.09576000  0.11375564    -0.43700
N202        N  0.03585761  0.53158482  0.12161916    -0.41100
N203        N  0.17048305  0.97510804  0.15022697    -0.42500
H204        H  0.09900999  0.98013393  0.16075260     0.13700
H205        H  0.10619709  0.52436491  0.11043088     0.10200
H206        H  0.13528354  0.45080985  0.11738055     0.11200
H207        H  0.22394254  0.06071418  0.09444243     0.17000
C208        C  0.40110169  0.36330738  0.21170029    -0.01200
C209        C  0.39196601  0.37421207  0.22453887     0.07400
C210        C  0.40684011  0.40975036  0.22739410    -0.07100
C211        C  0.43009130  0.43450103  0.21758641     0.04900
C212        C  0.43906753  0.42377133  0.20456165    -0.14400
C213        C  0.42478877  0.38804939  0.20191794    -0.07700
C214        C  0.36556868  0.34913445  0.23479125     0.05800
C215        C  0.37310996  0.32751061  0.24333556    -0.08800
C216        C  0.34832760  0.30328200  0.25293943     0.00800
C217        C  0.31552737  0.30065440  0.25407553     0.00700
C218        C  0.30811144  0.32229939  0.24553615    -0.12400
C219        C  0.33284454  0.34660001  0.23604738     0.01100
C220        C  0.35639841  0.28025666  0.26095249     0.40400
C221        C  0.32369645  0.36789096  0.22733700     0.37100
C222        C  0.38503348  0.32696265  0.20799220     0.36800
C223        C  0.44469969  0.47067180  0.22138985     0.37500
N224        N  0.36275186  0.26167938  0.26735156    -0.43300
N225        N  0.31645995  0.38502601  0.22035393    -0.43700
N226        N  0.45637773  0.49962746  0.22447818    -0.41100
N227        N  0.37186206  0.29781755  0.20500420    -0.42500
H228        H  0.43127085  0.37940965  0.19197554     0.13700
H229        H  0.39989103  0.41815878  0.23728976     0.10200
H230        H  0.39821962  0.32931987  0.24235819     0.11200
H231        H  0.28260725  0.31971482  0.24611037     0.17000
C232        C  0.10788572  0.12683908  0.21405884    -0.01200
C233        C  0.12492796  0.11716661  0.22443459     0.07400
C234        C  0.11680338  0.08238452  0.22516289    -0.07100
C235        C  0.09306203  0.05754817  0.21549627     0.04900
C236        C  0.07633210  0.06729580  0.20490946    -0.14400
C237        C  0.08374336  0.10194849  0.20450742    -0.07700
C238        C  0.15214251  0.14294973  0.23430060     0.05800
C239        C  0.14411285  0.16259060  0.24385873    -0.08800
C240        C  0.16946042  0.18753848  0.25304923     0.00800
C241        C  0.20313379  0.19202498  0.25323596     0.00700
C242        C  0.21117655  0.17258675  0.24359822    -0.12400
C243        C  0.18620025  0.14840252  0.23413442     0.01100
C244        C  0.16106231  0.20995762  0.26130558     0.40400
C245        C  0.19656936  0.13060111  0.22391955     0.37100
C246        C  0.11563979  0.16234585  0.21258697     0.36800
C247        C  0.08654446  0.02241026  0.21683518     0.37500
N248        N  0.15440128  0.22822085  0.26775029    -0.43300
N249        N  0.20485987  0.11638585  0.21570348    -0.43700
N250        N  0.08155482  0.99434456  0.21797176    -0.41100
N251        N  0.12172983  0.19076135  0.21137455    -0.42500
H252        H  0.07119819  0.10989792  0.19647722     0.13700
H253        H  0.12946875  0.07469555  0.23325096     0.10200
H254        H  0.11815305  0.15893035  0.24390927     0.11200
H255        H  0.23732830  0.17674459  0.24333630     0.17000
C256        C  0.15491426  0.17331219  0.30355940    -0.01200
C257        C  0.14745405  0.13852296  0.30287072     0.07400
C258        C  0.16781644  0.13016920  0.29393689    -0.07100
C259        C  0.19508354  0.15576213  0.28568618     0.04900
C260        C  0.20210258  0.19042074  0.28617122    -0.14400
C261        C  0.18215775  0.19887271  0.29531277    -0.07700
C262        C  0.11814347  0.11040863  0.31115158     0.05800
C263        C  0.08425880  0.10297196  0.30808326    -0.08800
C264        C  0.05585532  0.07671220  0.31558708     0.00800
C265        C  0.06104377  0.05697837  0.32635636     0.00700
C266        C  0.09499401  0.06403060  0.32917613    -0.12400
C267        C  0.12342451  0.09070573  0.32184788     0.01100
C268        C  0.02181459  0.07119393  0.31223128     0.40400
C269        C  0.15781777  0.09805821  0.32580117     0.37100
C270        C  0.13543919  0.18352877  0.31286511     0.36800
C271        C  0.21615140  0.14602952  0.27719992     0.37500
N272        N  0.49457289  0.06681269  0.30946125    -0.43300
N273        N  0.18538802  0.10403279  0.32900424    -0.43700
N274        N  0.23301451  0.13819176  0.27039297    -0.41100
N275        N  0.11982342  0.19173980  0.32030771    -0.42500
H276        H  0.18778561  0.22556600  0.29591601     0.13700
H277        H  0.16232120  0.10351763  0.29339962     0.10200
H278        H  0.08001801  0.11786856  0.29979560     0.11200
H279        H  0.09935119  0.04870719  0.33720000     0.17000
C280        C  0.36182371  0.32455089  0.30356001    -0.01200
C281        C  0.36483311  0.35776163  0.30332737     0.07400
C282        C  0.34123336  0.36273945  0.29497300    -0.07100
C283        C  0.31530231  0.33550821  0.28681491     0.04900
C284        C  0.31299337  0.30269335  0.28672240    -0.14400
C285        C  0.33592961  0.29736457  0.29534922    -0.07700
C286        C  0.39313234  0.38786696  0.31125804     0.05800
C287        C  0.42765981  0.39859003  0.30770071    -0.08800
C288        C  0.45520028  0.42646405  0.31492338     0.00800
C289        C  0.44850798  0.44455654  0.32595267     0.00700
C290        C  0.41388283  0.43459066  0.32912212    -0.12400
C291        C  0.38632918  0.40633698  0.32203504     0.01100
C292        C  0.49004248  0.43499368  0.31118181     0.40400
C293        C  0.35136876  0.39613555  0.32635560     0.37100
C294        C  0.38476107  0.31764135  0.31224523     0.36800
C295        C  0.29067339  0.34148398  0.27896464     0.37500
N296        N  0.51798607  0.44190884  0.30817385    -0.43300
N297        N  0.32337469  0.38801347  0.32984321    -0.43700
N298        N  0.27076469  0.34610553  0.27271241    -0.41100
N299        N  0.40322653  0.31212495  0.31915569    -0.42500
H300        H  0.33375399  0.27195506  0.29555833     0.13700
H301        H  0.34323916  0.38807065  0.29474704     0.10200
H302        H  0.43312062  0.38487494  0.29928636     0.11200
H303        H  0.40832410  0.44861095  0.33735166     0.17000
C304        C  0.43806394  0.03868968  0.97273122    -0.01200
C305        C  0.40306312  0.01212246  0.97408072     0.07400
C306        C  0.39536329  0.48342195  0.98299306    -0.07100
C307        C  0.42137897  0.48165925  0.99096211     0.04900
C308        C  0.45591762  0.00944309  0.99046170    -0.14400
C309        C  0.46392339  0.03740201  0.98103696    -0.07700
C310        C  0.37409715  0.01346225  0.96631916     0.05800
C311        C  0.35176827  0.48573318  0.95722173    -0.08800
C312        C  0.32416079  0.48592750  0.94988676     0.00800
C313        C  0.31883913  0.01454597  0.95133348     0.00700
C314        C  0.33988609  0.04130619  0.96098484    -0.12400
C315        C  0.36728411  0.04104096  0.96842403     0.01100
C316        C  0.30083248  0.45602618  0.94132258     0.40400
C317        C  0.38760202  0.06918187  0.97833765     0.37100
C318        C  0.44828757  0.06693828  0.96254751     0.36800
C319        C  0.41212520  0.45047743  0.99912682     0.37500
N320        N  0.28182845  0.43213041  0.93449896    -0.43300
N321        N  0.40399621  0.09196773  0.98617636    -0.43700
N322        N  0.40448420  0.42523590  0.00553581    -0.41100
N323        N  0.45645138  0.08955215  0.95437662    -0.42500
H324        H  0.49052420  0.05834362  0.98017908     0.13700
H325        H  0.36882748  0.46231256  0.98378036     0.10200
H326        H  0.35592421  0.46386454  0.95584159     0.11200
H327        H  0.33541157  0.06296230  0.96242866     0.17000
C328        C  0.17314730  0.04301492  0.95625586    -0.01200
C329        C  0.15164024  0.01432684  0.96518812     0.07400
C330        C  0.15736387  0.48599837  0.96565814    -0.07100
C331        C  0.18460198  0.48641142  0.95782179     0.04900
C332        C  0.20714301  0.01580617  0.94947200    -0.14400
C333        C  0.20110195  0.04391850  0.94884358    -0.07700
C334        C  0.12321490  0.01331049  0.97417574     0.05800
C335        C  0.08898259  0.48672838  0.97179576    -0.08800
C336        C  0.06155291  0.48467016  0.98006803     0.00800
C337        C  0.06803924  0.00968203  0.99098255     0.00700
C338        C  0.10240384  0.03602680  0.99347066    -0.12400
C339        C  0.12987567  0.03775067  0.98533639     0.01100
C340        C  0.02703455  0.45623379  0.97731717     0.40400
C341        C  0.16479005  0.06431021  0.98887612     0.37100
C342        C  0.16643364  0.07133155  0.95417832     0.36800
C343        C  0.18868134  0.45620095  0.95837788     0.37500
N344        N  0.49932754  0.43355393  0.97508389    -0.43300
N345        N  0.19283903  0.08557192  0.99163258    -0.43700
N346        N  0.19195437  0.43197789  0.95879352    -0.41100
N347        N  0.16092908  0.09392026  0.95244173    -0.42500
H348        H  0.21841517  0.06680445  0.94263327     0.13700
H349        H  0.14062846  0.46357478  0.97227720     0.10200
H350        H  0.08367154  0.46753528  0.96340619     0.11200
H351        H  0.10780486  0.05538216  0.00179046     0.17000
C352        C  0.34090636  0.49211706  0.90068355    -0.01200
C353        C  0.37610666  0.51706976  0.90292010     0.07400
C354        C  0.38457102  0.04417097  0.91283582    -0.07100
C355        C  0.35868465  0.04642168  0.92060866     0.04900
C356        C  0.32359679  0.02052131  0.91885654    -0.14400
C357        C  0.31517372  0.49384475  0.90872220    -0.07700
C358        C  0.40389870  0.51714225  0.89392481     0.05800
C359        C  0.42337063  0.04544547  0.88467382    -0.08800
C360        C  0.44662764  0.04477659  0.87461047     0.00800
C361        C  0.44986488  0.01479479  0.87338046     0.00700
C362        C  0.43179964  0.48729790  0.88320875    -0.12400
C363        C  0.40969469  0.48870495  0.89369768     0.01100
C364        C  0.46552032  0.07460905  0.86527902     0.40400
C365        C  0.39393230  0.46120667  0.90434797     0.37100
C366        C  0.33036123  0.46552282  0.88967551     0.36800
C367        C  0.36869092  0.07669979  0.92951886     0.37500
N368        N  0.48077057  0.09866467  0.85788898    -0.43300
N369        N  0.38163617  0.43941477  0.91300253    -0.43700
N370        N  0.37706436  0.10125802  0.93652960    -0.41100
N371        N  0.32192913  0.44429591  0.88081993    -0.42500
H372        H  0.28824091  0.47432928  0.90703122     0.13700
H373        H  0.41145468  0.06411017  0.91422565     0.10200
H374        H  0.41956736  0.06770757  0.88499740     0.11200
H375        H  0.43512408  0.46475902  0.88275416     0.17000
C376        C  0.09788114  0.98754268  0.88860188    -0.01200
C377        C  0.13359363  0.01121037  0.88681267     0.07400
C378        C  0.14454030  0.53304559  0.87452763    -0.07100
C379        C  0.12064155  0.53260659  0.86445003     0.04900
C380        C  0.08481733  0.00953802  0.86646348    -0.14400
C381        C  0.07404649  0.98685087  0.87847355    -0.07700
C382        C  0.15997867  0.01351236  0.89748851     0.05800
C383        C  0.16147509  0.48348205  0.90097328    -0.08800
C384        C  0.18622261  0.48481691  0.91078064     0.00800
C385        C  0.21091756  0.01682404  0.91688867     0.00700
C386        C  0.20999137  0.04695106  0.91321730    -0.12400
C387        C  0.18424566  0.04541280  0.90395850     0.01100
C388        C  0.18604559  0.45308085  0.91432559     0.40400
C389        C  0.18275631  0.07676193  0.90159819     0.37100
C390        C  0.08475928  0.96426632  0.90092031     0.36800
C391        C  0.13387441  0.55563088  0.85207056     0.37500
N392        N  0.18578451  0.42760455  0.91720875    -0.43300
N393        N  0.18148291  0.10186224  0.89976954    -0.43700
N394        N  0.14482967  0.57416987  0.84218155    -0.41100
N395        N  0.07413644  0.94538227  0.91071167    -0.42500
H396        H  0.04669059  0.96885700  0.88017550     0.13700
H397        H  0.17198610  0.55058290  0.87280467     0.10200
H398        H  0.14339173  0.45892459  0.89594776     0.11200
H399        H  0.22942633  0.07175666  0.91760911     0.17000
C400        C  0.46036981  0.09310451  0.80251552    -0.01200
C401        C  0.48262278  0.10896254  0.79050676     0.07400
C402        C  0.01176980  0.10487055  0.78886098    -0.07100
C403        C  0.01873304  0.08518535  0.79882895     0.04900
C404        C  0.99595712  0.06870872  0.81058778    -0.14400
C405        C  0.46683112  0.07271217  0.81221059    -0.07700
C406        C  0.47745710  0.13194354  0.78021120     0.05800
C407        C  0.00439535  0.16633034  0.77845514    -0.08800
C408        C  0.00008487  0.18977221  0.76975344     0.00800
C409        C  0.96798624  0.17920892  0.76286666     0.00700
C410        C  0.44135490  0.14456221  0.76429260    -0.12400
C411        C  0.44616902  0.12070981  0.77248782     0.01100
C412        C  0.02913095  0.22441683  0.76795042     0.40400
C413        C  0.41891611  0.08480761  0.77253188     0.37100
C414        C  0.43162929  0.09854488  0.80556548     0.36800
C415        C  0.04874196  0.08144722  0.79649357     0.37500
N416        N  0.05248747  0.25213827  0.76648452    -0.43300
N417        N  0.39702371  0.05606293  0.77253118    -0.43700
N418        N  0.07279397  0.07842612  0.79464475    -0.41100
N419        N  0.40850355  0.10274875  0.80800227    -0.42500
H420        H  0.44944206  0.06051786  0.82133988     0.13700
H421        H  0.02919025  0.11718814  0.77975961     0.10200
H422        H  0.02877518  0.17506909  0.78409301     0.11200
H423        H  0.41655991  0.13615310  0.75910994     0.17000
C424        C  0.98886184  0.35110609  0.76665125    -0.01200
C425        C  0.97332815  0.34612884  0.78051291     0.07400
C426        C  0.45169808  0.31219934  0.78552290    -0.07100
C427        C  0.44606975  0.28346908  0.77721386     0.04900
C428        C  0.96262652  0.28825835  0.76353547    -0.14400
C429        C  0.98412382  0.32236663  0.75848255    -0.07700
C430        C  0.97960943  0.37554237  0.79024956     0.05800
C431        C  0.45123590  0.37846467  0.79504464    -0.08800
C432        C  0.45555190  0.40401532  0.80513139     0.00800
C433        C  0.48887410  0.42727341  0.81067152     0.00700
C434        C  0.01730140  0.42469139  0.80567078    -0.12400
C435        C  0.01292939  0.39895749  0.79570825     0.01100
C436        C  0.42552288  0.40634800  0.80927184     0.40400
C437        C  0.04282350  0.39615593  0.79179734     0.37100
C438        C  0.00909691  0.38535032  0.76044028     0.36800
C439        C  0.42305343  0.24931817  0.78304575     0.37500
N440        N  0.40153645  0.40838013  0.81257791    -0.43300
N441        N  0.06680729  0.39398145  0.78863666    -0.43700
N442        N  0.40498423  0.22194213  0.78778050    -0.41100
N443        N  0.02525670  0.41278481  0.75543936    -0.42500
H444        H  0.99737895  0.32666458  0.74814554     0.13700
H445        H  0.43943912  0.30813870  0.79610529     0.10200
H446        H  0.42554424  0.36054680  0.79092122     0.11200
H447        H  0.04301841  0.44230340  0.80985434     0.17000
C448        C  0.41754111  0.11114760  0.72177940    -0.01200
C449        C  0.94832753  0.11359838  0.71622622     0.07400
C450        C  0.97978094  0.14480740  0.71817848    -0.07100
C451        C  0.98107909  0.17264010  0.72585825     0.04900
C452        C  0.95038480  0.17007779  0.73134966    -0.14400
C453        C  0.41875331  0.13951671  0.72902556    -0.07700
C454        C  0.94842297  0.08427257  0.70825767     0.05800
C455        C  0.42643790  0.06928957  0.69619696    -0.08800
C456        C  0.42631662  0.04225056  0.68827806     0.00800
C457        C  0.94990309  0.03088418  0.69184299     0.00700
C458        C  0.97118913  0.04515503  0.70415434    -0.12400
C459        C  0.97048267  0.07137272  0.71238456     0.01100
C460        C  0.40057153  0.02557028  0.67703393     0.40400
C461        C  0.99217693  0.08414950  0.72518287     0.37100
C462        C  0.38460989  0.07944092  0.72070345     0.36800
C463        C  0.01419377  0.20364917  0.72800311     0.37500
N464        N  0.37952894  0.01217392  0.66815930    -0.43300
N465        N  0.00949174  0.09452964  0.73544747    -0.43700
N466        N  0.04070418  0.22850473  0.72977559    -0.41100
N467        N  0.35820415  0.05402997  0.71983332    -0.42500
H468        H  0.39510842  0.13747050  0.73329165     0.13700
H469        H  0.00350500  0.14738734  0.71374381     0.10200
H470        H  0.40915729  0.07867231  0.69295974     0.11200
H471        H  0.98889619  0.03614988  0.70720863     0.17000
C472        C  0.98172023  0.39476738  0.70321366    -0.01200
C473        C  0.94973836  0.36426541  0.70606683     0.07400
C474        C  0.41894479  0.36319335  0.70166010    -0.07100
C475        C  0.41978193  0.39121700  0.69424605     0.04900
C476        C  0.95183819  0.42004246  0.69028557    -0.14400
C477        C  0.98253130  0.42163370  0.69493494    -0.07700
C478        C  0.94779920  0.33394890  0.71406272     0.05800
C479        C  0.42514052  0.31962640  0.72599800    -0.08800
C480        C  0.42358961  0.29204943  0.73409249     0.00800
C481        C  0.94631273  0.27949474  0.73078694     0.00700
C482        C  0.96761941  0.29259998  0.71843990    -0.12400
C483        C  0.96778772  0.31873484  0.70987421     0.01100
C484        C  0.39785428  0.27645905  0.74541289     0.40400
C485        C  0.98791998  0.32860093  0.69660761     0.37100
C486        C  0.01386238  0.40024666  0.70942453     0.36800
C487        C  0.38756017  0.39034701  0.69122171     0.37500
N488        N  0.37704346  0.26383461  0.75441795    -0.43300
N489        N  0.00416377  0.33652281  0.68601504    -0.43700
N490        N  0.36177016  0.38989058  0.68897354    -0.41100
N491        N  0.03964259  0.40475242  0.71442347    -0.42500
H492        H  0.00718335  0.44458687  0.69252672     0.13700
H493        H  0.39413563  0.34057775  0.70416632     0.10200
H494        H  0.40864798  0.33006768  0.72905041     0.11200
H495        H  0.98433367  0.28234360  0.71546775     0.17000
C496        C  0.03772546  0.40190741  0.54726974    -0.01200
C497        C  0.01311974  0.38632709  0.55849631     0.07400
C498        C  0.48768580  0.39572142  0.56038051    -0.07100
C499        C  0.48581761  0.41959300  0.55103574     0.04900
C500        C  0.00990984  0.43463405  0.53948633    -0.14400
C501        C  0.03604443  0.42595510  0.53792592    -0.07700
C502        C  0.51258190  0.35925589  0.56810071     0.05800
C503        C  0.03988165  0.36813119  0.57796009    -0.08800
C504        C  0.03967974  0.34311332  0.58732482     0.00800
C505        C  0.01168741  0.30879667  0.58692854     0.00700
C506        C  0.48477259  0.29983591  0.57688700    -0.12400
C507        C  0.48489059  0.32472983  0.56757147     0.01100
C508        C  0.06870809  0.35283843  0.59696204     0.40400
C509        C  0.45655293  0.31411921  0.55743131     0.37100
C510        C  0.06404352  0.39259556  0.54478499     0.36800
C511        C  0.45925655  0.42846913  0.55378533     0.37500
N512        N  0.09196576  0.36041495  0.60467621    -0.43300
N513        N  0.43379256  0.30556577  0.54933351    -0.43700
N514        N  0.43798034  0.43556191  0.55603541    -0.41100
N515        N  0.08512148  0.38510854  0.54278285    -0.42500
H516        H  0.05469576  0.43727962  0.52914593     0.13700
H517        H  0.46901377  0.38406448  0.56914602     0.10200
H518        H  0.06129289  0.39461583  0.57833128     0.11200
H519        H  0.46336879  0.27332696  0.57648242     0.17000
C520        C  0.47267510  0.08148899  0.56031844    -0.01200
C521        C  0.50125220  0.11541862  0.56198116     0.07400
C522        C  0.03145797  0.12476577  0.55392165    -0.07100
C523        C  0.03325603  0.10164172  0.54412075     0.04900
C524        C  0.00358212  0.06896625  0.54144045    -0.14400
C525        C  0.47363371  0.05913820  0.54976934    -0.07700
C526        C  0.50085997  0.14164136  0.57207953     0.05800
C527        C  0.02949779  0.16078368  0.58128324    -0.08800
C528        C  0.03236906  0.18844625  0.58963796     0.00800
C529        C  0.00462007  0.19516706  0.59010720     0.00700
C530        C  0.47586867  0.17597982  0.58104844    -0.12400
C531        C  0.47448389  0.15054545  0.57162591     0.01100
C532        C  0.06536723  0.21155766  0.59629066     0.40400
C533        C  0.44769328  0.13676717  0.56064019     0.37100
C534        C  0.44274558  0.06841050  0.56970413     0.36800
C535        C  0.06609402  0.11233957  0.53713444     0.37500
N536        N  0.09213027  0.23013471  0.60139751    -0.43300
N537        N  0.42640537  0.12607199  0.55175642    -0.43700
N538        N  0.09272206  0.12092457  0.53182500    -0.41100
N539        N  0.41879578  0.05795890  0.57724394    -0.42500
H540        H  0.45120083  0.03354155  0.54831360     0.13700
H541        H  0.05391698  0.15039059  0.55527192     0.10200
H542        H  0.05066787  0.15534139  0.58134854     0.11200
H543        H  0.45541129  0.18246480  0.58069026     0.17000
C544        C  0.45323507  0.06788410  0.64029587    -0.01200
C545        C  0.97833477  0.10159860  0.64491442     0.07400
C546        C  0.99903024  0.10497927  0.65707354    -0.07100
C547        C  0.99585381  0.07580578  0.66428651     0.04900
C548        C  0.96977758  0.04232422  0.66008959    -0.14400
C549        C  0.44903696  0.03874234  0.64795649    -0.07700
C550        C  0.98421079  0.13361622  0.63710710     0.05800
C551        C  0.45605708  0.13881669  0.63424030    -0.08800
C552        C  0.46080637  0.16828284  0.62663712     0.00800
C553        C  0.99432139  0.19377562  0.62230625     0.00700
C554        C  0.02258093  0.18995976  0.62616121    -0.12400
C555        C  0.01780647  0.15965396  0.63284474     0.01100
C556        C  0.43108046  0.17192224  0.62336550     0.40400
C557        C  0.04770366  0.15534858  0.63443105     0.37100
C558        C  0.43215572  0.06222706  0.62750662     0.36800
C559        C  0.02103664  0.08090601  0.67533459     0.37500
N560        N  0.40739061  0.17508055  0.62074040    -0.43300
N561        N  0.07174665  0.15200871  0.63558141    -0.43700
N562        N  0.04159902  0.08519743  0.68404404    -0.41100
N563        N  0.41512453  0.05745716  0.61728392    -0.42500
H564        H  0.42940896  0.01300502  0.64448617     0.13700
H565        H  0.01834092  0.13058798  0.66079339     0.10200
H566        H  0.43028368  0.11971083  0.63782818     0.11200
H567        H  0.04850635  0.21049621  0.62366240     0.17000
C568        C  0.01265173  0.41803319  0.64733805    -0.01200
C569        C  0.98539618  0.38562973  0.64245626     0.07400
C570        C  0.45114860  0.37658252  0.64587587    -0.07100
C571        C  0.44375168  0.39916599  0.65369415     0.04900
C572        C  0.97094065  0.43106930  0.65886093    -0.14400
C573        C  0.00524519  0.44025828  0.65552745    -0.07700
C574        C  0.99172103  0.36050974  0.63397431     0.05800
C575        C  0.01438412  0.34990511  0.63954520    -0.08800
C576        C  0.01973570  0.32525186  0.63223896     0.00800
C577        C  0.00080049  0.30908193  0.61944070     0.00700
C578        C  0.47787891  0.31947614  0.61397637    -0.12400
C579        C  0.47419028  0.34567356  0.62076556     0.01100
C580        C  0.04543004  0.31764035  0.63795211     0.40400
C581        C  0.45294987  0.35746986  0.61368834     0.37100
C582        C  0.04830351  0.42950351  0.64372452     0.36800
C583        C  0.40796348  0.38966363  0.65557353     0.37500
N584        N  0.06609583  0.31160863  0.64249774    -0.43300
N585        N  0.43608851  0.36699326  0.60792997    -0.43700
N586        N  0.37909269  0.38176647  0.65673335    -0.41100
N587        N  0.07682291  0.43847024  0.64081418    -0.42500
H588        H  0.02627632  0.46501338  0.65924953     0.13700
H589        H  0.42994415  0.35178135  0.64229568     0.10200
H590        H  0.02792270  0.36083264  0.64969577     0.11200
H591        H  0.46257872  0.30703867  0.60437254     0.17000
C592        C  0.17844178  0.14371720  0.44482193    -0.01200
C593        C  0.14998227  0.14579330  0.45059838     0.07400
C594        C  0.14682235  0.17490588  0.44702019    -0.07100
C595        C  0.17107782  0.20138150  0.43809214     0.04900
C596        C  0.19809650  0.19820905  0.43175757    -0.14400
C597        C  0.20155304  0.16936499  0.43518198    -0.07700
C598        C  0.12406230  0.11935997  0.46089362     0.05800
C599        C  0.11467858  0.13103565  0.47341782    -0.08800
C600        C  0.08872659  0.10774246  0.48283045     0.00800
C601        C  0.07391693  0.07171679  0.48066963     0.00700
C602        C  0.08307943  0.05978326  0.46825023    -0.12400
C603        C  0.10649546  0.08323362  0.45800940     0.01100
C604        C  0.07686847  0.12153181  0.49427094     0.40400
C605        C  0.10941895  0.06970011  0.44412409     0.37100
C606        C  0.18599070  0.11697498  0.44919252     0.36800
C607        C  0.16793911  0.23177854  0.43561359     0.37500
N608        N  0.06664522  0.13267244  0.50311346    -0.43300
N609        N  0.11146327  0.05887849  0.43293694    -0.43700
N610        N  0.16563198  0.25623139  0.43356275    -0.41100
N611        N  0.19230549  0.09563259  0.45254519    -0.42500
H612        H  0.22321774  0.16764583  0.43075755     0.13700
H613        H  0.12548980  0.17727828  0.45137767     0.10200
H614        H  0.12693473  0.15861799  0.47565389     0.11200
H615        H  0.07042538  0.03211317  0.46614186     0.17000
C616        C  0.41813477  0.39726192  0.45935973    -0.01200
C617        C  0.38356916  0.39010139  0.45890248     0.07400
C618        C  0.37243171  0.40595324  0.46909384    -0.07100
C619        C  0.39509818  0.42843163  0.47977016     0.04900
C620        C  0.42980754  0.43558729  0.48027378    -0.14400
C621        C  0.44080405  0.41974352  0.46995444    -0.07700
C622        C  0.35791218  0.36339917  0.44887689     0.05800
C623        C  0.34987542  0.32893007  0.45083641    -0.08800
C624        C  0.32501860  0.30232111  0.44218238     0.00800
C625        C  0.30774135  0.30996912  0.43110693     0.00700
C626        C  0.31610738  0.34466298  0.42900002    -0.12400
C627        C  0.34082637  0.37131227  0.43785714     0.01100
C628        C  0.31726830  0.26725135  0.44515787     0.40400
C629        C  0.34801481  0.40643550  0.43558913     0.37100
C630        C  0.43094397  0.38188996  0.44900739     0.36800
C631        C  0.38151196  0.44243429  0.49039069     0.37500
N632        N  0.31067850  0.23912479  0.44774828    -0.43300
N633        N  0.35369935  0.43460335  0.43388888    -0.43700
N634        N  0.37052585  0.45349160  0.49894242    -0.41100
N635        N  0.44110034  0.36950022  0.44070601    -0.42500
H636        H  0.46730880  0.42494102  0.47011080     0.13700
H637        H  0.34564368  0.39988899  0.46897537     0.10200
H638        H  0.36267864  0.32270529  0.45940774     0.11200
H639        H  0.30266210  0.35078925  0.42069601     0.17000
C640        C  0.13477280  0.15853035  0.39431277    -0.01200
C641        C  0.14157283  0.13903977  0.38406699     0.07400
C642        C  0.17610758  0.14760842  0.38164337    -0.07100
C643        C  0.20349304  0.17489023  0.38927100     0.04900
C644        C  0.19675896  0.19518098  0.39913571    -0.14400
C645        C  0.16224328  0.18685959  0.40134943    -0.07700
C646        C  0.11311908  0.11018615  0.37560008     0.05800
C647        C  0.09081369  0.11701848  0.36716591    -0.08800
C648        C  0.06372193  0.09066060  0.35909513     0.00800
C649        C  0.05924143  0.05692732  0.35897364     0.00700
C650        C  0.08118583  0.04992887  0.36752465    -0.12400
C651        C  0.10780719  0.07608949  0.37585221     0.01100
C652        C  0.03992785  0.09843817  0.35157385     0.40400
C653        C  0.12847943  0.06699134  0.38497943     0.37100
C654        C  0.09977846  0.14905723  0.39828161     0.36800
C655        C  0.23812998  0.18081068  0.38714986     0.37500
N656        N  0.02065835  0.10464250  0.34569862    -0.43300
N657        N  0.14498216  0.05970066  0.39234325    -0.43700
N658        N  0.26592480  0.18556258  0.38553938    -0.41100
N659        N  0.07173058  0.14120650  0.40156392    -0.42500
H660        H  0.15660677  0.20243577  0.40864975     0.13700
H661        H  0.18167326  0.13276773  0.37383348     0.10200
H662        H  0.09441723  0.14300773  0.36698647     0.11200
H663        H  0.07746692  0.02389226  0.36767442     0.17000
C664        C  0.40389385  0.42459947  0.37671563    -0.01200
C665        C  0.39609606  0.38982795  0.37521367     0.07400
C666        C  0.41617591  0.38228862  0.36573021    -0.07100
C667        C  0.44332273  0.40863737  0.35766752     0.04900
C668        C  0.45021806  0.44323919  0.35874758    -0.14400
C669        C  0.43059852  0.45083165  0.36847760    -0.07700
C670        C  0.36658522  0.36101841  0.38318920     0.05800
C671        C  0.33296975  0.35526319  0.38082419    -0.08800
C672        C  0.30455914  0.32928390  0.38842481     0.00800
C673        C  0.30934714  0.30784966  0.39840067     0.00700
C674        C  0.34288263  0.31316207  0.40057347    -0.12400
C675        C  0.37143548  0.33968707  0.39320818     0.01100
C676        C  0.27106824  0.32630128  0.38632815     0.40400
C677        C  0.40558114  0.34555798  0.39663428     0.37100
C678        C  0.38533508  0.43406157  0.38690446     0.36800
C679        C  0.46415944  0.39953973  0.34868670     0.39600
N680        N  0.24432102  0.32417500  0.38468249    -0.43300
N681        N  0.43295180  0.35036180  0.39945912    -0.43700
N682        N  0.98069803  0.39189659  0.34155059    -0.41100
N683        N  0.37041104  0.44147305  0.39511487    -0.42500
H684        H  0.43605140  0.47738753  0.36956198     0.13700
H685        H  0.41053795  0.35568402  0.36459915     0.10200
H686        H  0.32901702  0.37156325  0.37316432     0.11200
H687        H  0.34682333  0.29693699  0.40827508     0.17000
C688        C  0.27997499  0.78052805  0.40698345     0.03100
C689        C  0.27946536  0.78166894  0.42239651     0.03100
C690        C  0.25145725  0.75500783  0.42994672    -0.17400
C691        C  0.22494941  0.72642860  0.42269622     0.03100
C692        C  0.22515094  0.72485551  0.40731517     0.03100
C693        C  0.25256988  0.75230757  0.39963212    -0.17400
H694        H  0.25285004  0.75149993  0.38783888     0.05100
H695        H  0.25058650  0.75610563  0.44172752     0.05100
C696        C  0.00965564  0.78128520  0.59666308     0.03100
C697        C  0.00391865  0.78084564  0.61188676     0.03100
C698        C  0.99925543  0.75189491  0.62000937    -0.17400
C699        C  0.00050805  0.72408591  0.61335691     0.03100
C700        C  0.00665182  0.72504870  0.59822135     0.03100
C701        C  0.01115877  0.75362785  0.59011519    -0.17400
H702        H  0.01499824  0.75393203  0.57843860     0.05100
H703        H  0.99367925  0.75047426  0.63155506     0.05100
In704      In  0.50327579  0.50173755  0.51009243     1.36900
C705        C  0.00321269  0.54479318  0.53018640     0.78400
O706        O  0.48057273  0.95982625  0.52675872    -0.60000
O707        O  0.03311546  0.97923883  0.52094273    -0.50900
C708        C  0.45536319  0.95913802  0.49122146     0.71100
O709        O  0.45114299  0.98004158  0.49910167    -0.45800
C710        C  0.04844515  0.54631917  0.49100794     0.75800
O711        O  0.47576685  0.52231075  0.52394324    -0.57700
O712        O  0.05137652  0.52174618  0.49640301    -0.47700
O713        O  0.03031584  0.54509763  0.52600007    -0.54100
C714        C  0.00788378  0.95860443  0.52881522     0.86000
O715        O  0.48383767  0.96015085  0.49320684    -0.56000
O716        O  0.02231121  0.54781124  0.49528460    -0.59300
C717        C  0.94892993  0.75289048  0.73979263     0.03100
C718        C  0.95843344  0.75792306  0.75479177     0.03100
C719        C  0.96491395  0.73357323  0.76181435    -0.17400
C720        C  0.96132268  0.70416240  0.75461262     0.03100
C721        C  0.95118815  0.69885253  0.73985385     0.03100
C722        C  0.94503861  0.72308315  0.73265587    -0.17400
H723        H  0.93819106  0.71922913  0.72119560     0.05100
H724        H  0.47319975  0.73767124  0.77310169     0.05100
In725      In  0.50706079  0.00503954  0.84019187     1.36900
C726        C  0.49507455  0.95459097  0.82148542     0.78400
O727        O  0.47536881  0.51986443  0.82651660    -0.60000
O728        O  0.03019519  0.55219880  0.82562313    -0.50900
C729        C  0.47083790  0.51108369  0.86175045     0.71100
O730        O  0.46282767  0.98209040  0.85605684    -0.45800
C731        C  0.05776436  0.50832946  0.85659530     0.75800
O732        O  0.47227218  0.95262926  0.83023506    -0.57700
O733        O  0.06268922  0.53227864  0.84776862    -0.47700
O734        O  0.02405093  0.98193715  0.82267080    -0.54100
C735        C  0.00088024  0.54639795  0.82114154     0.86000
O736        O  0.49770728  0.53663415  0.85654187    -0.56000
O737        O  0.02719258  0.98301186  0.85671604    -0.59300
C738        C  0.23947533  0.51956040  0.92615858     0.03100
C739        C  0.23735509  0.51785263  0.94153419     0.03100
C740        C  0.26409352  0.51722553  0.94952307    -0.17400
C741        C  0.29243796  0.51775951  0.94248624     0.03100
C742        C  0.29490523  0.52068016  0.92710738     0.03100
C743        C  0.26831206  0.52141151  0.91918706    -0.17400
H744        H  0.26968835  0.52267714  0.90739273     0.05100
H745        H  0.26238484  0.51542462  0.96129669     0.05100
C746        C  0.28606985  0.77335821  0.27808706     0.03100
C747        C  0.28706543  0.77292744  0.26271102     0.03100
C748        C  0.25978488  0.74587355  0.25505405    -0.17400
C749        C  0.23143270  0.71898726  0.26230567     0.03100
C750        C  0.23086366  0.71860870  0.27773513     0.03100
C751        C  0.25817305  0.74595445  0.28542422    -0.17400
H752        H  0.25752703  0.74610301  0.29722705     0.05100
H753        H  0.26042143  0.74603012  0.24324297     0.05100
C754        C  0.47778838  0.97219822  0.35004200     0.03100
C755        C  0.47713271  0.97298668  0.33458617     0.03100
C756        C  0.50415555  0.00140239  0.32721266    -0.17400
C757        C  0.03165802  0.52888425  0.33476714     0.03100
C758        C  0.03159231  0.52833325  0.35020052     0.03100
C759        C  0.50482480  0.00003084  0.35757985    -0.17400
H760        H  0.50507504  0.99963074  0.36939721     0.05100
H761        H  0.50397527  0.00194171  0.31541029     0.05100
In762      In  0.50647577  0.49735292  0.17508579     1.36900
C763        C  0.05147743  0.54236772  0.19413843     0.78400
O764        O  0.46723502  0.97958532  0.19280601    -0.60000
O765        O  0.47954856  0.94275049  0.18435757    -0.50900
C766        C  0.46308711  0.50276867  0.15681961     0.71100
O767        O  0.47880106  0.52452910  0.16683696    -0.45800
C768        C  0.05156153  0.99885968  0.15589664     0.75800
O769        O  0.03229753  0.54918133  0.18629884    -0.57700
O770        O  0.03483442  0.97337706  0.16437249    -0.47700
O771        O  0.04779676  0.51273615  0.19195460    -0.54100
C772        C  0.46253997  0.94926939  0.19359997     0.86000
O773        O  0.46925419  0.97799248  0.15636961    -0.56000
O774        O  0.04521997  0.52332985  0.15733955    -0.59300
C775        C  0.23361371  0.00722829  0.08806176     0.03100
C776        C  0.23358515  0.00815787  0.07266772     0.03100
C777        C  0.26161640  0.00938281  0.06506444    -0.17400
C778        C  0.28956752  0.00976108  0.07244251     0.03100
C779        C  0.28958023  0.00951367  0.08787161     0.03100
C780        C  0.26160919  0.00812044  0.09544500    -0.17400
H781        H  0.26155337  0.00757536  0.10726021     0.05100
H782        H  0.26158309  0.00986143  0.05325738     0.05100
C783        C  0.03928882  0.50916245  0.99960845     0.03100
C784        C  0.03902183  0.50899018  0.01508039     0.03100
C785        C  0.51147235  0.50946770  0.02238540    -0.17400
C786        C  0.48397865  0.50960488  0.01481582     0.03100
C787        C  0.48425247  0.50964921  0.99935063     0.03100
C788        C  0.51216698  0.51002985  0.99204640    -0.17400
H789        H  0.51267526  0.51082914  0.98023940     0.05100
H790        H  0.51137087  0.50960996  0.03419198     0.05100
C791        C  0.96415579  0.95570068  0.66731540     0.03100
C792        C  0.95417538  0.94994922  0.68212609     0.03100
C793        C  0.94897804  0.47441646  0.68970727    -0.17400
C794        C  0.95361681  0.50478775  0.68289597     0.03100
C795        C  0.96373658  0.51058474  0.66802461     0.03100
C796        C  0.96853368  0.48581849  0.66043168    -0.17400
H797        H  0.97636874  0.49034191  0.64909578     0.05100
H798        H  0.94189158  0.47006298  0.70112644     0.05100
C799        C  0.42080772  0.53769709  0.02830170    -0.01200
C800        C  0.40190306  0.51244849  0.03902451     0.07400
C801        C  0.41001509  0.98627501  0.04174358    -0.07100
C802        C  0.43663186  0.98507735  0.03409638     0.04900
C803        C  0.45572316  0.51035980  0.02335810    -0.14400
C804        C  0.44764189  0.53670054  0.02071140    -0.07700
C805        C  0.37337548  0.51253703  0.04748420     0.05800
C806        C  0.33932184  0.98503861  0.04567108    -0.08800
C807        C  0.31187137  0.98360470  0.05372550     0.00800
C808        C  0.31818207  0.01020462  0.06378606     0.00700
C809        C  0.35225380  0.53783101  0.06548781    -0.12400
C810        C  0.37978563  0.53886833  0.05766290     0.01100
C811        C  0.27757822  0.95413542  0.05173522     0.40400
C812        C  0.41455269  0.56649506  0.06066013     0.37100
C813        C  0.41247808  0.56427047  0.02462610     0.36800
C814        C  0.44321781  0.95705423  0.03722994     0.37500
N815        N  0.25004210  0.93058727  0.05015604    -0.43300
N816        N  0.44244645  0.58852103  0.06312688    -0.43700
N817        N  0.44870973  0.93473413  0.03973550    -0.41100
N818        N  0.40571401  0.58551539  0.02168728    -0.42500
H819        H  0.46224377  0.55648857  0.01263584     0.13700
H820        H  0.39548570  0.96669960  0.04991438     0.10200
H821        H  0.33423653  0.96449586  0.03799049     0.11200
H822        H  0.35741802  0.55870808  0.07296274     0.17000
C823        C  0.10030470  0.97913972  0.02950247    -0.01200
C824        C  0.11953868  0.00460859  0.04011486     0.07400
C825        C  0.11219089  0.53144297  0.04244901    -0.07100
C826        C  0.08623224  0.53324135  0.03449426     0.04900
C827        C  0.06672743  0.50769122  0.02391164    -0.14400
C828        C  0.07394584  0.98062345  0.02166221    -0.07700
C829        C  0.14837904  0.00477456  0.04850591     0.05800
C830        C  0.18209207  0.53312203  0.04696696    -0.08800
C831        C  0.20991530  0.53485545  0.05484929     0.00800
C832        C  0.20447632  0.00749879  0.06430126     0.00700
C833        C  0.17074602  0.97913442  0.06582431    -0.12400
C834        C  0.14272029  0.97797135  0.05832819     0.01100
C835        C  0.24356067  0.56557642  0.05346930     0.40400
C836        C  0.10824056  0.94990618  0.06142760     0.37100
C837        C  0.10810402  0.95208582  0.02606714     0.36800
C838        C  0.08103911  0.56233707  0.03708612     0.37500
N839        N  0.27049416  0.59027931  0.05242538    -0.43300
N840        N  0.08058705  0.92756661  0.06402183    -0.43700
N841        N  0.07695156  0.58568726  0.03923872    -0.41100
N842        N  0.11450810  0.93049733  0.02333435    -0.42500
H843        H  0.05921474  0.96080472  0.01361356     0.13700
H844        H  0.12705805  0.55129525  0.05047334     0.10200
H845        H  0.18660762  0.55417540  0.03966638     0.11200
H846        H  0.16619075  0.95789079  0.07297346     0.17000
C847        C  0.41386556  0.49335951  0.12191489    -0.01200
C848        C  0.39447145  0.50959941  0.12543914     0.07400
C849        C  0.39841713  0.02434920  0.13934423    -0.07100
C850        C  0.42115473  0.02324508  0.14961697     0.04900
C851        C  0.43967526  0.50599892  0.14623500    -0.14400
C852        C  0.43577466  0.49129300  0.13233493    -0.07700
C853        C  0.36901605  0.51034510  0.11504481     0.05800
C854        C  0.34212543  0.97884617  0.10949329    -0.08800
C855        C  0.31664606  0.97821286  0.10031310     0.00800
C856        C  0.31768557  0.00943749  0.09654822     0.00700
C857        C  0.34425934  0.54088963  0.10215262    -0.12400
C858        C  0.37001591  0.54164884  0.11119325     0.01100
C859        C  0.28879691  0.94516277  0.09537639     0.40400
C860        C  0.39729721  0.57488322  0.11628474     0.37100
C861        C  0.41254431  0.47947863  0.10756308     0.36800
C862        C  0.42416718  0.03918812  0.16364524     0.37500
N863        N  0.26630250  0.91870171  0.09147678    -0.43300
N864        N  0.41911197  0.60148449  0.12042046    -0.43700
N865        N  0.42668766  0.05211870  0.17486075    -0.41100
N866        N  0.41164970  0.46840058  0.09606628    -0.42500
H867        H  0.45037849  0.47859531  0.12949420     0.13700
H868        H  0.38335483  0.03650247  0.14225673     0.10200
H869        H  0.34055408  0.95457780  0.11263410     0.11200
H870        H  0.34475809  0.56490934  0.09948184     0.17000
C871        C  0.12632064  0.49221073  0.14033001    -0.01200
C872        C  0.12861469  0.50478559  0.12598225     0.07400
C873        C  0.10502869  0.01522476  0.12149128    -0.07100
C874        C  0.07963035  0.01342760  0.13104583     0.04900
C875        C  0.07719087  0.00040465  0.14530150    -0.14400
C876        C  0.10048352  0.48969645  0.14974398    -0.07700
C877        C  0.15456827  0.50583038  0.11545250     0.05800
C878        C  0.15468733  0.97491432  0.11244972    -0.08800
C879        C  0.17991219  0.97484387  0.10341933     0.00800
C880        C  0.20511793  0.00596487  0.09686200     0.00700
C881        C  0.20442751  0.53671572  0.09940410    -0.12400
C882        C  0.17950003  0.53693202  0.10866947     0.01100
C883        C  0.17929865  0.94246930  0.10095687     0.40400
C884        C  0.18096545  0.56957792  0.11150212     0.37100
C885        C  0.15086865  0.48274933  0.14582011     0.36800
C886        C  0.05543071  0.02363214  0.12579229     0.37500
N887        N  0.17858896  0.91644198  0.09890837    -0.43300
N888        N  0.18215294  0.59576501  0.11374645    -0.43700
N889        N  0.03588159  0.03163236  0.12162424    -0.41100
N890        N  0.17056072  0.47520661  0.15023339    -0.42500
H891        H  0.09905473  0.48017845  0.16075631     0.13700
H892        H  0.10620697  0.02438955  0.11043666     0.10200
H893        H  0.13526960  0.95080005  0.11737735     0.11200
H894        H  0.22394647  0.56071392  0.09443523     0.17000
C895        C  0.40111443  0.86330990  0.21170922    -0.01200
C896        C  0.39196031  0.87421329  0.22454335     0.07400
C897        C  0.40681721  0.90975178  0.22739435    -0.07100
C898        C  0.43006615  0.93450326  0.21758638     0.04900
C899        C  0.43905860  0.92377479  0.20456548    -0.14400
C900        C  0.42479890  0.88805322  0.20192647    -0.07700
C901        C  0.36556133  0.84913394  0.23479509     0.05800
C902        C  0.37310115  0.82750885  0.24333935    -0.08800
C903        C  0.34831824  0.80328084  0.25294322     0.00800
C904        C  0.31551831  0.80065388  0.25407911     0.00700
C905        C  0.30810322  0.82229930  0.24553968    -0.12400
C906        C  0.33283756  0.84660087  0.23605152     0.01100
C907        C  0.35638855  0.78025612  0.26095707     0.40400
C908        C  0.32369176  0.86789615  0.22734290     0.37100
C909        C  0.38506931  0.82696410  0.20800599     0.36800
C910        C  0.44465506  0.97067393  0.22138569     0.37500
N911        N  0.36274124  0.76167927  0.26735690    -0.43300
N912        N  0.31645806  0.88503600  0.22036168    -0.43700
N913        N  0.45631742  0.99962955  0.22447079    -0.41100
N914        N  0.37191771  0.79781805  0.20502177    -0.42500
H915        H  0.43129463  0.87941398  0.19198741     0.13700
H916        H  0.39985590  0.91815966  0.23728693     0.10200
H917        H  0.39821066  0.82931761  0.24236238     0.11200
H918        H  0.28259946  0.81971562  0.24611392     0.17000
C919        C  0.10784549  0.62680476  0.21408299    -0.01200
C920        C  0.12491463  0.61713876  0.22444822     0.07400
C921        C  0.11681958  0.58236392  0.22516370    -0.07100
C922        C  0.09308672  0.55753197  0.21549306     0.04900
C923        C  0.07633362  0.56727542  0.20491560    -0.14400
C924        C  0.08371170  0.60191818  0.20452788    -0.07700
C925        C  0.15213086  0.64292371  0.23431399     0.05800
C926        C  0.14409869  0.66255430  0.24387715    -0.08800
C927        C  0.16944990  0.68751096  0.25306377     0.00800
C928        C  0.20312979  0.69201339  0.25324373     0.00700
C929        C  0.21117449  0.67258345  0.24360202    -0.12400
C930        C  0.18619543  0.64839454  0.23414022     0.01100
C931        C  0.16104760  0.70992411  0.26132232     0.40400
C932        C  0.19656943  0.63061046  0.22391835     0.37100
C933        C  0.11556229  0.66230248  0.21262527     0.36800
C934        C  0.08660525  0.52240393  0.21681709     0.37500
N935        N  0.15438327  0.72818281  0.26776871    -0.43300
N936        N  0.20486344  0.61640957  0.21569629    -0.43700
N937        N  0.08164479  0.49434626  0.21794162    -0.41100
N938        N  0.12162135  0.69071044  0.21142464    -0.42500
H939        H  0.07114669  0.60986424  0.19650590     0.13700
H940        H  0.12950359  0.57467802  0.23324405     0.10200
H941        H  0.11813410  0.65888138  0.24393387     0.11200
H942        H  0.23733015  0.67675263  0.24333490     0.17000
C943        C  0.15490874  0.67329393  0.30356142    -0.01200
C944        C  0.14745049  0.63850534  0.30287093     0.07400
C945        C  0.16781888  0.63015698  0.29393833    -0.07100
C946        C  0.19509002  0.65575422  0.28569083     0.04900
C947        C  0.20210822  0.69041249  0.28617827    -0.14400
C948        C  0.18215811  0.69885922  0.29531893    -0.07700
C949        C  0.11813824  0.61038691  0.31114968     0.05800
C950        C  0.08425429  0.60295725  0.30808420    -0.08800
C951        C  0.05585072  0.57669768  0.31558801     0.00800
C952        C  0.06103847  0.55695756  0.32635426     0.00700
C953        C  0.09498674  0.56400046  0.32917045    -0.12400
C954        C  0.12341743  0.59067448  0.32184206     0.01100
C955        C  0.02181070  0.57118598  0.31223586     0.40400
C956        C  0.15780920  0.59801544  0.32579129     0.37100
C957        C  0.13542287  0.68350473  0.31286332     0.36800
C958        C  0.21616009  0.64602493  0.27720429     0.37500
N959        N  0.49456927  0.56680974  0.30946904    -0.43300
N960        N  0.18537830  0.60398008  0.32899073    -0.43700
N961        N  0.23302360  0.63818835  0.27039697    -0.41100
N962        N  0.11979734  0.69171111  0.32030219    -0.42500
H963        H  0.18778358  0.72555163  0.29592325     0.13700
H964        H  0.16232446  0.60350586  0.29339907     0.10200
H965        H  0.08001421  0.61785959  0.29979908     0.11200
H966        H  0.09934211  0.54867113  0.33719197     0.17000
C967        C  0.36181658  0.82456254  0.30356508    -0.01200
C968        C  0.36483104  0.85777521  0.30332849     0.07400
C969        C  0.34123372  0.86275228  0.29497199    -0.07100
C970        C  0.31530068  0.83551845  0.28681532     0.04900
C971        C  0.31298775  0.80270141  0.28672604    -0.14400
C972        C  0.33592171  0.79737403  0.29535524    -0.07700
C973        C  0.39313205  0.88788247  0.31125791     0.05800
C974        C  0.42765907  0.89860597  0.30769939    -0.08800
C975        C  0.45520099  0.92648163  0.31492100     0.00800
C976        C  0.44851074  0.94457417  0.32595097     0.00700
C977        C  0.41388580  0.93460744  0.32912169    -0.12400
C978        C  0.38633085  0.90635289  0.32203539     0.01100
C979        C  0.49004273  0.93501206  0.31117823     0.40400
C980        C  0.35137117  0.89614942  0.32635791     0.37100
C981        C  0.38474805  0.81765276  0.31225433     0.36800
C982        C  0.29067280  0.84149408  0.27896415     0.37500
N983        N  0.51798625  0.94192812  0.30816963    -0.43300
N984        N  0.32337778  0.88802531  0.32984740    -0.43700
N985        N  0.27076518  0.84611687  0.27271168    -0.41100
N986        N  0.40320788  0.81213558  0.31916847    -0.42500
H987        H  0.33374330  0.77196341  0.29556722     0.13700
H988        H  0.34324226  0.88808459  0.29474367     0.10200
H989        H  0.43311834  0.88488961  0.29928508     0.11200
H990        H  0.40832827  0.94862703  0.33735199     0.17000
C991        C  0.43806330  0.53868623  0.97273353    -0.01200
C992        C  0.40306266  0.51211667  0.97408079     0.07400
C993        C  0.39536359  0.98343146  0.98299527    -0.07100
C994        C  0.42137971  0.98167023  0.99096439     0.04900
C995        C  0.45591650  0.50943318  0.99046095    -0.14400
C996        C  0.46392216  0.53739588  0.98103859    -0.07700
C997        C  0.37409699  0.51345806  0.96631931     0.05800
C998        C  0.35176641  0.98573448  0.95722333    -0.08800
C999        C  0.32415702  0.98592633  0.94988908     0.00800
C1000       C  0.31884167  0.51454617  0.95133271     0.00700
C1001       C  0.33988612  0.54130303  0.96098584    -0.12400
C1002       C  0.36728321  0.54103613  0.96842519     0.01100
C1003       C  0.30082384  0.95602038  0.94132837     0.40400
C1004       C  0.38760149  0.56917672  0.97833888     0.37100
C1005       C  0.44828773  0.56694173  0.96255344     0.36800
C1006       C  0.41212576  0.95049002  0.99913032     0.37500
N1007       N  0.28181547  0.93212026  0.93450797    -0.43300
N1008       N  0.40399717  0.59196333  0.98617703    -0.43700
N1009       N  0.40448421  0.92524952  0.00554019    -0.41100
N1010       N  0.45645222  0.58956216  0.95438598    -0.42500
H1011       H  0.49052267  0.55833900  0.98018230     0.13700
H1012       H  0.36882747  0.96232343  0.98378399     0.10200
H1013       H  0.35592136  0.96386491  0.95584451     0.11200
H1014       H  0.33541161  0.56295898  0.96243037     0.17000
C1015       C  0.17314726  0.54301325  0.95624924    -0.01200
C1016       C  0.15163876  0.51432345  0.96518053     0.07400
C1017       C  0.15736596  0.98600230  0.96566706    -0.07100
C1018       C  0.18460250  0.98641352  0.95783025     0.04900
C1019       C  0.20714506  0.51580645  0.94946535    -0.14400
C1020       C  0.20110343  0.54391849  0.94883743    -0.07700
C1021       C  0.12321398  0.51330645  0.97416919     0.05800
C1022       C  0.08898347  0.98673478  0.97180049    -0.08800
C1023       C  0.06155260  0.98467840  0.98007111     0.00800
C1024       C  0.06804014  0.50967512  0.99097895     0.00700
C1025       C  0.10240482  0.53602183  0.99346551    -0.12400
C1026       C  0.12987574  0.53774668  0.98533000     0.01100
C1027       C  0.02703344  0.95624623  0.97731761     0.40400
C1028       C  0.16479065  0.56430582  0.98886922     0.37100
C1029       C  0.16643430  0.57133052  0.95417236     0.36800
C1030       C  0.18868260  0.95620354  0.95838766     0.37500
N1031       N  0.49932565  0.93357032  0.97508207    -0.43300
N1032       N  0.19284040  0.58556650  0.99162520    -0.43700
N1033       N  0.19195623  0.93198090  0.95880449    -0.41100
N1034       N  0.16093084  0.59392010  0.95243619    -0.42500
H1035       H  0.21841783  0.56680585  0.94262812     0.13700
H1036       H  0.14063171  0.96358035  0.97228715     0.10200
H1037       H  0.08367327  0.96754268  0.96341054     0.11200
H1038       H  0.10780671  0.55537753  0.00178523     0.17000
C1039       C  0.34088578  0.99210716  0.90068098    -0.01200
C1040       C  0.37608617  0.01706414  0.90291412     0.07400
C1041       C  0.38458956  0.54417478  0.91284259    -0.07100
C1042       C  0.35870103  0.54642823  0.92061254     0.04900
C1043       C  0.32361254  0.52053248  0.91885656    -0.14400
C1044       C  0.31515549  0.99383164  0.90872287    -0.07700
C1045       C  0.40387684  0.01713566  0.89391820     0.05800
C1046       C  0.42339249  0.54545290  0.88468085    -0.08800
C1047       C  0.44664518  0.54478262  0.87461554     0.00800
C1048       C  0.44987750  0.51479842  0.87338299     0.00700
C1049       C  0.43178581  0.98729477  0.88320631    -0.12400
C1050       C  0.40967587  0.98870026  0.89369309     0.01100
C1051       C  0.46553835  0.57461646  0.86528484     0.40400
C1052       C  0.39391151  0.96120252  0.90434352     0.37100
C1053       C  0.33033780  0.96551169  0.88967331     0.36800
C1054       C  0.36870639  0.57670490  0.92952358     0.37500
N1055       N  0.48078900  0.59867333  0.85789551    -0.43300
N1056       N  0.38161275  0.93941117  0.91299820    -0.43700
N1057       N  0.37707931  0.60126199  0.93653502    -0.41100
N1058       N  0.32190334  0.94428387  0.88081800    -0.42500
H1059       H  0.28822268  0.97431310  0.90703461     0.13700
H1060       H  0.41147346  0.56411113  0.91423492     0.10200
H1061       H  0.41959167  0.56771639  0.88500595     0.11200
H1062       H  0.43511313  0.96475751  0.88275342     0.17000
C1063       C  0.09789027  0.48754178  0.88859706    -0.01200
C1064       C  0.13360224  0.51121033  0.88680709     0.07400
C1065       C  0.14453359  0.03304657  0.87453350    -0.07100
C1066       C  0.12063649  0.03260960  0.86445555     0.04900
C1067       C  0.08482275  0.50953516  0.86645907    -0.14400
C1068       C  0.07405393  0.48684876  0.87846938    -0.07700
C1069       C  0.15998872  0.51351437  0.89748254     0.05800
C1070       C  0.16146212  0.98347858  0.90097960    -0.08800
C1071       C  0.18620928  0.98481175  0.91078673     0.00800
C1072       C  0.21092988  0.51682999  0.91688242     0.00700
C1073       C  0.21000055  0.54695564  0.91321143    -0.12400
C1074       C  0.18425291  0.54541506  0.90395312     0.01100
C1075       C  0.18603309  0.95307545  0.91433037     0.40400
C1076       C  0.18275623  0.57676101  0.90159507     0.37100
C1077       C  0.08477069  0.46426586  0.90091570     0.36800
C1078       C  0.13387164  0.05563623  0.85207692     0.37500
N1079       N  0.18577397  0.92759955  0.91721238    -0.43300
N1080       N  0.18147600  0.60185834  0.89976870    -0.43700
N1081       N  0.14482951  0.07417770  0.84218879    -0.41100
N1082       N  0.07414968  0.44538214  0.91070721    -0.42500
H1083       H  0.04669838  0.46885465  0.88017206     0.13700
H1084       H  0.17197975  0.05058315  0.87281099     0.10200
H1085       H  0.14337782  0.95892156  0.89595400     0.11200
H1086       H  0.22943316  0.57176154  0.91760386     0.17000
C1087       C  0.46037363  0.59310818  0.80251621    -0.01200
C1088       C  0.48262897  0.60896888  0.79050834     0.07400
C1089       C  0.01177714  0.60487848  0.78886334    -0.07100
C1090       C  0.01873853  0.58519142  0.79883102     0.04900
C1091       C  0.99595966  0.56871135  0.81058862    -0.14400
C1092       C  0.46683286  0.57271354  0.81221079    -0.07700
C1093       C  0.47746258  0.63194875  0.78021236     0.05800
C1094       C  0.00439936  0.66633625  0.77845617    -0.08800
C1095       C  0.00008666  0.68977679  0.76975447     0.00800
C1096       C  0.96798753  0.67921138  0.76286777     0.00700
C1097       C  0.44135803  0.64456384  0.76429354    -0.12400
C1098       C  0.44617442  0.62071284  0.77248875     0.01100
C1099       C  0.02913073  0.72442256  0.76795140     0.40400
C1100       C  0.41892386  0.58480963  0.77253257     0.37100
C1101       C  0.43163284  0.59854835  0.80556582     0.36800
C1102       C  0.04874825  0.58145417  0.79649651     0.37500
N1103       N  0.05248514  0.75214517  0.76648522    -0.43300
N1104       N  0.39703359  0.55606404  0.77253181    -0.43700
N1105       N  0.07280070  0.57843332  0.79464862    -0.41100
N1106       N  0.40850709  0.60275243  0.80800228    -0.42500
H1107       H  0.44944180  0.56051669  0.82133926     0.13700
H1108       H  0.02919944  0.61719808  0.77976271     0.10200
H1109       H  0.02877945  0.67507666  0.78409406     0.11200
H1110       H  0.41656293  0.63615292  0.75911069     0.17000
C1111       C  0.98886112  0.85110679  0.76665133    -0.01200
C1112       C  0.97332679  0.84612972  0.78051285     0.07400
C1113       C  0.45169629  0.81220028  0.78552279    -0.07100
C1114       C  0.44606781  0.78346994  0.77721387     0.04900
C1115       C  0.96262509  0.78825907  0.76353558    -0.14400
C1116       C  0.98412324  0.82236724  0.75848281    -0.07700
C1117       C  0.97960755  0.87554291  0.79024958     0.05800
C1118       C  0.45123307  0.87846151  0.79504625    -0.08800
C1119       C  0.45554791  0.90400984  0.80513399     0.00800
C1120       C  0.48887059  0.92727106  0.81067295     0.00700
C1121       C  0.01729876  0.92469222  0.80567078    -0.12400
C1122       C  0.01292756  0.89895949  0.79570775     0.01100
C1123       C  0.42551620  0.90633470  0.80927730     0.40400
C1124       C  0.04282249  0.89616007  0.79179605     0.37100
C1125       C  0.00909657  0.88535067  0.76044011     0.36800
C1126       C  0.42305132  0.74931938  0.78304603     0.37500
N1127       N  0.40152666  0.90835899  0.81258563    -0.43300
N1128       N  0.06680676  0.89398706  0.78863470    -0.43700
N1129       N  0.40498214  0.72194392  0.78778133    -0.41100
N1130       N  0.02525690  0.91278458  0.75543872    -0.42500
H1131       H  0.99737924  0.82666510  0.74814604     0.13700
H1132       H  0.43943711  0.80813971  0.79610513     0.10200
H1133       H  0.42554113  0.86054159  0.79092364     0.11200
H1134       H  0.04301605  0.94230573  0.80985367     0.17000
C1135       C  0.41754839  0.61115064  0.72178016    -0.01200
C1136       C  0.94833567  0.61360148  0.71622801     0.07400
C1137       C  0.97978884  0.64481060  0.71818081    -0.07100
C1138       C  0.98108572  0.67264349  0.72585997     0.04900
C1139       C  0.95039062  0.67008084  0.73135052    -0.14400
C1140       C  0.41875955  0.63951949  0.72902609    -0.07700
C1141       C  0.94843253  0.58427573  0.70825997     0.05800
C1142       C  0.42644900  0.56929198  0.69619887    -0.08800
C1143       C  0.42632960  0.54225315  0.68828054     0.00800
C1144       C  0.94991801  0.53088952  0.69184576     0.00700
C1145       C  0.97120220  0.54516076  0.70415761    -0.12400
C1146       C  0.97049193  0.57137635  0.71238796     0.01100
C1147       C  0.40058289  0.52556823  0.67703738     0.40400
C1148       C  0.99218016  0.58415002  0.72518808     0.37100
C1149       C  0.38461701  0.57944453  0.72070298     0.36800
C1150       C  0.01419984  0.70365318  0.72800506     0.37500
N1151       N  0.37953853  0.51216698  0.66816381    -0.43300
N1152       N  0.00948925  0.59452722  0.73545438    -0.43700
N1153       N  0.04070965  0.72850941  0.72977766    -0.41100
N1154       N  0.35821102  0.55403427  0.71983163    -0.42500
H1155       H  0.39511406  0.63747310  0.73329152     0.13700
H1156       H  0.00351357  0.64739052  0.71374697     0.10200
H1157       H  0.40916756  0.57867328  0.69296111     0.11200
H1158       H  0.98890959  0.53615651  0.70721256     0.17000
C1159       C  0.98171498  0.89476561  0.70320739    -0.01200
C1160       C  0.94973501  0.86426342  0.70606333     0.07400
C1161       C  0.41893891  0.86318924  0.70165866    -0.07100
C1162       C  0.41977147  0.89121096  0.69424458     0.04900
C1163       C  0.95182541  0.92003764  0.69028260    -0.14400
C1164       C  0.98252095  0.92163042  0.69492931    -0.07700
C1165       C  0.94779999  0.83394950  0.71406042     0.05800
C1166       C  0.42514298  0.81962795  0.72599634    -0.08800
C1167       C  0.42359325  0.79205186  0.73409121     0.00800
C1168       C  0.94631740  0.77949811  0.73078612     0.00700
C1169       C  0.96762332  0.79260297  0.71843882    -0.12400
C1170       C  0.96778902  0.81873557  0.70987223     0.01100
C1171       C  0.39785648  0.77645975  0.74541096     0.40400
C1172       C  0.98791718  0.82859735  0.69660458     0.37100
C1173       C  0.01386128  0.90024775  0.70941469     0.36800
C1174       C  0.38754752  0.89033703  0.69122099     0.37500
N1175       N  0.37704428  0.76383328  0.75441537    -0.43300
N1176       N  0.00415756  0.83651501  0.68601109    -0.43700
N1177       N  0.36175593  0.88987764  0.68897320    -0.41100
N1178       N  0.03964568  0.90475703  0.71441037    -0.42500
H1179       H  0.00717147  0.94458380  0.69251934     0.13700
H1180       H  0.39413128  0.84057325  0.70416636     0.10200
H1181       H  0.40864961  0.83006833  0.72904863     0.11200
H1182       H  0.98433798  0.78234698  0.71546675     0.17000
C1183       C  0.03772654  0.90190832  0.54727265    -0.01200
C1184       C  0.01311565  0.88631955  0.55849689     0.07400
C1185       C  0.48767386  0.89570396  0.56037847    -0.07100
C1186       C  0.48580192  0.91957253  0.55103324     0.04900
C1187       C  0.00989966  0.93462266  0.53948618    -0.14400
C1188       C  0.03604224  0.92595384  0.53792844    -0.07700
C1189       C  0.51257919  0.85924872  0.56810130     0.05800
C1190       C  0.03987879  0.86812471  0.57796091    -0.08800
C1191       C  0.03967593  0.84310784  0.58732658     0.00800
C1192       C  0.01168323  0.80879145  0.58693090     0.00700
C1193       C  0.48476825  0.79982989  0.57688938    -0.12400
C1194       C  0.48488678  0.82472287  0.56757307     0.01100
C1195       C  0.06870312  0.85283359  0.59696460     0.40400
C1196       C  0.45654817  0.81411173  0.55743333     0.37100
C1197       C  0.06405403  0.89260808  0.54479081     0.36800
C1198       C  0.45922929  0.92843398  0.55377977     0.37500
N1199       N  0.09195911  0.86040974  0.60467972    -0.43300
N1200       N  0.43378718  0.80555893  0.54933590    -0.43700
N1201       N  0.43794306  0.93551395  0.55602747    -0.41100
N1202       N  0.08513983  0.88513069  0.54279110    -0.42500
H1203       H  0.05469813  0.93728526  0.52915040     0.13700
H1204       H  0.46899778  0.88404072  0.56914218     0.10200
H1205       H  0.06129015  0.89460926  0.57833183     0.11200
H1206       H  0.46336399  0.77332113  0.57648540     0.17000
C1207       C  0.47269104  0.58149408  0.56031815    -0.01200
C1208       C  0.50126819  0.61542290  0.56198287     0.07400
C1209       C  0.03147619  0.62477064  0.55392479    -0.07100
C1210       C  0.03327545  0.60164867  0.54412295     0.04900
C1211       C  0.00359990  0.56897652  0.54143920    -0.14400
C1212       C  0.47364995  0.55914729  0.54976716    -0.07700
C1213       C  0.50087319  0.64164376  0.57208179     0.05800
C1214       C  0.02951025  0.66078752  0.58128571    -0.08800
C1215       C  0.03237933  0.68844933  0.58964039     0.00800
C1216       C  0.00462832  0.69516719  0.59010999     0.00700
C1217       C  0.47587722  0.67597790  0.58105127    -0.12400
C1218       C  0.47449490  0.65054497  0.57162846     0.01100
C1219       C  0.06537784  0.71156373  0.59629206     0.40400
C1220       C  0.44770420  0.63676532  0.56064277     0.37100
C1221       C  0.44276243  0.56841097  0.56970457     0.36800
C1222       C  0.06611704  0.61234392  0.53714047     0.37500
N1223       N  0.09214150  0.73014299  0.60139789    -0.43300
N1224       N  0.42641619  0.62606900  0.55175905    -0.43700
N1225       N  0.09274826  0.62092671  0.53183465    -0.41100
N1226       N  0.41881385  0.55795499  0.57724530    -0.42500
H1227       H  0.45121635  0.53355186  0.54830966     0.13700
H1228       H  0.05393627  0.65039387  0.55527710     0.10200
H1229       H  0.05068183  0.65534747  0.58135107     0.11200
H1230       H  0.45541808  0.68246040  0.58069324     0.17000
C1231       C  0.45325280  0.56789094  0.64029883    -0.01200
C1232       C  0.97835413  0.60160465  0.64491751     0.07400
C1233       C  0.99905003  0.60498390  0.65707623    -0.07100
C1234       C  0.99587156  0.57580941  0.66428897     0.04900
C1235       C  0.96979271  0.54232885  0.66009243    -0.14400
C1236       C  0.44905206  0.53874832  0.64795952    -0.07700
C1237       C  0.98422941  0.63362265  0.63711103     0.05800
C1238       C  0.45607501  0.63882299  0.63424606    -0.08800
C1239       C  0.46082204  0.66828817  0.62664298     0.00800
C1240       C  0.99433547  0.69377940  0.62230978     0.00700
C1241       C  0.02259642  0.68996475  0.62616352    -0.12400
C1242       C  0.01782418  0.65966032  0.63284760     0.01100
C1243       C  0.43109555  0.67192867  0.62337421     0.40400
C1244       C  0.04772259  0.65535693  0.63443384     0.37100
C1245       C  0.43217521  0.56223607  0.62750915     0.36800
C1246       C  0.02105494  0.58090702  0.67533636     0.37500
N1247       N  0.40740544  0.67508837  0.62075158    -0.43300
N1248       N  0.07176682  0.65201914  0.63558432    -0.43700
N1249       N  0.04161760  0.58519557  0.68404521    -0.41100
N1250       N  0.41514620  0.55746882  0.61728594    -0.42500
H1251       H  0.42942263  0.51301154  0.64448925     0.13700
H1252       H  0.01836223  0.63059205  0.66079599     0.10200
H1253       H  0.43030268  0.61971759  0.63783531     0.11200
H1254       H  0.04852104  0.71050132  0.62366372     0.17000
C1255       C  0.01264189  0.91802929  0.64733893    -0.01200
C1256       C  0.98538769  0.88562521  0.64245686     0.07400
C1257       C  0.45113915  0.87657777  0.64587491    -0.07100
C1258       C  0.44374020  0.89916171  0.65369170     0.04900
C1259       C  0.97092793  0.93106553  0.65885863    -0.14400
C1260       C  0.00523318  0.94025464  0.65552688    -0.07700
C1261       C  0.99171476  0.86050534  0.63397586     0.05800
C1262       C  0.01437802  0.84990199  0.63954772    -0.08800
C1263       C  0.01973147  0.82524889  0.63224228     0.00800
C1264       C  0.00079835  0.80907813  0.61944358     0.00700
C1265       C  0.47787595  0.81947064  0.61397859    -0.12400
C1266       C  0.47418555  0.84566780  0.62076700     0.01100
C1267       C  0.04542520  0.81763834  0.63795697     0.40400
C1268       C  0.45294478  0.85746248  0.61368890     0.37100
C1269       C  0.04829470  0.92950044  0.64372719     0.36800
C1270       C  0.40795158  0.88965928  0.65556984     0.37500
N1271       N  0.06609020  0.81160725  0.64250411    -0.43300
N1272       N  0.43608309  0.86698478  0.60793001    -0.43700
N1273       N  0.37908085  0.88176289  0.65672894    -0.41100
N1274       N  0.07681530  0.93846888  0.64081849    -0.42500
H1275       H  0.02626333  0.96500999  0.65924934     0.13700
H1276       H  0.42993563  0.85177611  0.64229466     0.10200
H1277       H  0.02791516  0.86083026  0.64969849     0.11200
H1278       H  0.46257636  0.80703206  0.60437475     0.17000
C1279       C  0.17845000  0.64369720  0.44480836    -0.01200
C1280       C  0.14999662  0.64577673  0.45058998     0.07400
C1281       C  0.14683801  0.67489175  0.44701497    -0.07100
C1282       C  0.17108998  0.70136756  0.43808599     0.04900
C1283       C  0.19810515  0.69819439  0.43174816    -0.14400
C1284       C  0.20155867  0.66934659  0.43516833    -0.07700
C1285       C  0.12408170  0.61934527  0.46088736     0.05800
C1286       C  0.11470936  0.63102450  0.47341377    -0.08800
C1287       C  0.08875852  0.60773517  0.48282773     0.00800
C1288       C  0.07393750  0.57170888  0.48066562     0.00700
C1289       C  0.08309081  0.55977129  0.46824487    -0.12400
C1290       C  0.10650679  0.58321865  0.45800313     0.01100
C1291       C  0.07691351  0.62152908  0.49427144     0.40400
C1292       C  0.10942162  0.56968213  0.44411719     0.37100
C1293       C  0.18599582  0.61694936  0.44917310     0.36800
C1294       C  0.16794986  0.73176440  0.43560924     0.37500
N1295       N  0.06670039  0.63267255  0.50311698    -0.43300
N1296       N  0.11145950  0.55885781  0.43292970    -0.43700
N1297       N  0.16564030  0.75621632  0.43355972    -0.41100
N1298       N  0.19230848  0.59560236  0.45252039    -0.42500
H1299       H  0.22321954  0.66762564  0.43074050     0.13700
H1300       H  0.12550897  0.67726571  0.45137562     0.10200
H1301       H  0.12697300  0.65860708  0.47565044     0.11200
H1302       H  0.07042929  0.53210094  0.46613614     0.17000
C1303       C  0.41812908  0.89725133  0.45936045    -0.01200
C1304       C  0.38356299  0.89008905  0.45890266     0.07400
C1305       C  0.37242346  0.90593968  0.46909372    -0.07100
C1306       C  0.39508844  0.92841819  0.47977047     0.04900
C1307       C  0.42979877  0.93557667  0.48027427    -0.14400
C1308       C  0.44079731  0.91973428  0.46995511    -0.07700
C1309       C  0.35790819  0.86338591  0.44887671     0.05800
C1310       C  0.34987102  0.82891701  0.45083729    -0.08800
C1311       C  0.32502020  0.80230800  0.44218135     0.00800
C1312       C  0.30774875  0.80995560  0.43110304     0.00700
C1313       C  0.31611488  0.84464937  0.42899542    -0.12400
C1314       C  0.34082854  0.87129877  0.43785417     0.01100
C1315       C  0.31727092  0.76723890  0.44515763     0.40400
C1316       C  0.34801881  0.90642210  0.43558458     0.37100
C1317       C  0.43093902  0.88187847  0.44900889     0.36800
C1318       C  0.38149955  0.94241663  0.49039175     0.37500
N1319       N  0.31068267  0.73911318  0.44774889    -0.43300
N1320       N  0.35370504  0.93459011  0.43388293    -0.43700
N1321       N  0.37051171  0.95347021  0.49894439    -0.41100
N1322       N  0.44109473  0.86948706  0.44070803    -0.42500
H1323       H  0.46730256  0.92493323  0.47011181     0.13700
H1324       H  0.34563491  0.89987372  0.46897490     0.10200
H1325       H  0.36267027  0.82269263  0.45941049     0.11200
H1326       H  0.30267391  0.85077559  0.42068938     0.17000
C1327       C  0.13478329  0.65852237  0.39430436    -0.01200
C1328       C  0.14158298  0.63903364  0.38405747     0.07400
C1329       C  0.17611782  0.64760445  0.38163238    -0.07100
C1330       C  0.20350375  0.67488588  0.38926000     0.04900
C1331       C  0.19677004  0.69517421  0.39912628    -0.14400
C1332       C  0.16225410  0.68685122  0.40134114    -0.07700
C1333       C  0.11312804  0.61017846  0.37559163     0.05800
C1334       C  0.09081677  0.61700757  0.36716005    -0.08800
C1335       C  0.06372045  0.59064700  0.35909223     0.00800
C1336       C  0.05924250  0.55691484  0.35897029     0.00700
C1337       C  0.08119329  0.54991961  0.36751827    -0.12400
C1338       C  0.10781814  0.57608246  0.37584365     0.01100
C1339       C  0.03991798  0.59841991  0.35157535     0.40400
C1340       C  0.12849436  0.56698664  0.38496942     0.37100
C1341       C  0.09978879  0.64904718  0.39827403     0.36800
C1342       C  0.23814081  0.68080771  0.38713764     0.37500
N1343       N  0.02064126  0.60462030  0.34570410    -0.43300
N1344       N  0.14499953  0.55969726  0.39233231    -0.43700
N1345       N  0.26593599  0.68556127  0.38552628    -0.41100
N1346       N  0.07174021  0.64119384  0.40155631    -0.42500
H1347       H  0.15661763  0.70242537  0.40864277     0.13700
H1348       H  0.18168313  0.63276517  0.37382159     0.10200
H1349       H  0.09441813  0.64299601  0.36698097     0.11200
H1350       H  0.07747588  0.52388355  0.36766777     0.17000
C1351       C  0.40390122  0.92459706  0.37671460    -0.01200
C1352       C  0.39610872  0.88982756  0.37521118     0.07400
C1353       C  0.41618973  0.88229355  0.36572622    -0.07100
C1354       C  0.44333257  0.90864582  0.35766320     0.04900
C1355       C  0.45022424  0.94324624  0.35874544    -0.14400
C1356       C  0.43060338  0.95083312  0.36847705    -0.07700
C1357       C  0.36659944  0.86101425  0.38318560     0.05800
C1358       C  0.33298235  0.85525142  0.38081794    -0.08800
C1359       C  0.30457230  0.82926991  0.38841785     0.00800
C1360       C  0.30936249  0.80784085  0.39839588     0.00700
C1361       C  0.34290017  0.81316059  0.40057118    -0.12400
C1362       C  0.37145247  0.83968799  0.39320634     0.01100
C1363       C  0.27107927  0.82628033  0.38631824     0.40400
C1364       C  0.40559998  0.84556663  0.39663444     0.37100
C1365       C  0.38533781  0.93405261  0.38690376     0.36800
C1366       C  0.46416757  0.89955239  0.34867914     0.39600
N1367       N  0.24433029  0.82414842  0.38467009    -0.43300
N1368       N  0.43297223  0.85037693  0.39946077    -0.43700
N1369       N  0.98070370  0.89191154  0.34154019    -0.41100
N1370       N  0.37040954  0.94145864  0.39511424    -0.42500
H1371       H  0.43605269  0.97738758  0.36956280     0.13700
H1372       H  0.41055483  0.85569020  0.36459381     0.10200
H1373       H  0.32902789  0.87154789  0.37315666     0.11200
H1374       H  0.34684283  0.79693936  0.40827419     0.17000
C1375       C  0.77996042  0.28053918  0.40698911     0.03100
C1376       C  0.77945412  0.28168263  0.42240207     0.03100
C1377       C  0.75144848  0.25502234  0.42995371    -0.17400
C1378       C  0.72494030  0.22644083  0.42270450     0.03100
C1379       C  0.72513935  0.22486477  0.40732344     0.03100
C1380       C  0.75255527  0.25231655  0.39963902    -0.17400
H1381       H  0.75283349  0.25150655  0.38784581     0.05100
H1382       H  0.75058060  0.25612236  0.44173453     0.05100
C1383       C  0.50965842  0.28128951  0.59666055     0.03100
C1384       C  0.50391765  0.28084806  0.61188391     0.03100
C1385       C  0.49924819  0.25189470  0.62000632    -0.17400
C1386       C  0.50049773  0.22408421  0.61335379     0.03100
C1387       C  0.50664600  0.22504920  0.59821859     0.03100
C1388       C  0.51115970  0.25363123  0.59011269    -0.17400
H1389       H  0.51500189  0.25393650  0.57843627     0.05100
H1390       H  0.49367016  0.25047375  0.63155184     0.05100
In1391     In  0.00326199  0.00172904  0.51009431     1.36900
C1392       C  0.50319511  0.04478041  0.53018909     0.78400
O1393       O  0.98058278  0.45983319  0.52675623    -0.60000
O1394       O  0.53312875  0.47925153  0.52094397    -0.50900
C1395       C  0.95537350  0.45914777  0.49122064     0.71100
O1396       O  0.95115695  0.48005476  0.49910011    -0.45800
C1397       C  0.54842783  0.04632262  0.49101174     0.75800
O1398       O  0.97575003  0.02229904  0.52394509    -0.57700
O1399       O  0.55136522  0.02175198  0.49640556    -0.47700
O1400       O  0.53029860  0.04508335  0.52600429    -0.54100
C1401       C  0.50789501  0.45861508  0.52881497     0.86000
O1402       O  0.98384593  0.46015646  0.49320632    -0.56000
O1403       O  0.52229002  0.04780676  0.49528889    -0.59300
C1404       C  0.44892538  0.25288725  0.73979310     0.03100
C1405       C  0.45843403  0.25792204  0.75479158     0.03100
C1406       C  0.46491668  0.23357303  0.76181355    -0.17400
C1407       C  0.46132284  0.20416117  0.75461175     0.03100
C1408       C  0.45118386  0.19884968  0.73985347     0.03100
C1409       C  0.44503164  0.22307920  0.73265621    -0.17400
H1410       H  0.43818080  0.21922422  0.72119627     0.05100
H1411       H  0.97320486  0.23767190  0.77310060     0.05100
In1412     In  0.00706334  0.50503985  0.84019085     1.36900
C1413       C  0.99507801  0.45459310  0.82148394     0.78400
O1414       O  0.97536727  0.01986795  0.82651910    -0.60000
O1415       O  0.53019396  0.05219375  0.82562070    -0.50900
C1416       C  0.97083012  0.01108113  0.86174983     0.71100
O1417       O  0.96283289  0.48209260  0.85605714    -0.45800
C1418       C  0.55776049  0.00833175  0.85659848     0.75800
O1419       O  0.97227631  0.45262921  0.83023456    -0.57700
O1420       O  0.56268478  0.03228317  0.84777316    -0.47700
O1421       O  0.52405339  0.48194082  0.82266836    -0.54100
C1422       C  0.50087871  0.04639668  0.82114124     0.86000
O1423       O  0.99770055  0.03663232  0.85654226    -0.56000
O1424       O  0.52719468  0.48301283  0.85671540    -0.59300
C1425       C  0.73946418  0.01955300  0.92616346     0.03100
C1426       C  0.73734953  0.01784941  0.94153921     0.03100
C1427       C  0.76409038  0.01722389  0.94952666    -0.17400
C1428       C  0.79243162  0.01775503  0.94248824     0.03100
C1429       C  0.79489227  0.02066957  0.92710916     0.03100
C1430       C  0.76829702  0.02139981  0.91919030    -0.17400
H1431       H  0.76966907  0.02266234  0.90739587     0.05100
H1432       H  0.76238637  0.01542702  0.96130043     0.05100
C1433       C  0.78607613  0.27335374  0.27808252     0.03100
C1434       C  0.78707384  0.27292638  0.26270656     0.03100
C1435       C  0.75979170  0.24587718  0.25504867    -0.17400
C1436       C  0.73143527  0.21899405  0.26229930     0.03100
C1437       C  0.73086204  0.21861393  0.27772868     0.03100
C1438       C  0.75817436  0.24595372  0.28541873    -0.17400
H1439       H  0.75752657  0.24610108  0.29722155     0.05100
H1440       H  0.76042998  0.24603533  0.24323758     0.05100
C1441       C  0.97778423  0.47218682  0.35004316     0.03100
C1442       C  0.97712852  0.47297095  0.33458722     0.03100
C1443       C  0.00415040  0.50138456  0.32721258    -0.17400
C1444       C  0.53166228  0.02890186  0.33476828     0.03100
C1445       C  0.53159428  0.02834722  0.35020182     0.03100
C1446       C  0.00482239  0.50002031  0.35757993    -0.17400
H1447       H  0.00507369  0.49962362  0.36939730     0.05100
H1448       H  0.00396893  0.50192216  0.31541016     0.05100
In1449     In  0.00646375  0.99735657  0.17508803     1.36900
C1450       C  0.55146914  0.04238165  0.19413631     0.78400
O1451       O  0.96725029  0.47958379  0.19280467    -0.60000
O1452       O  0.97955299  0.44274416  0.18435232    -0.50900
C1453       C  0.96307174  0.00276486  0.15682196     0.71100
O1454       O  0.97878315  0.02452607  0.16683933    -0.45800
C1455       C  0.55157534  0.49885976  0.15589513     0.75800
O1456       O  0.53228892  0.04919234  0.18629559    -0.57700
O1457       O  0.53484587  0.47337403  0.16436924    -0.47700
O1458       O  0.54778461  0.01274716  0.19195676    -0.54100
C1459       C  0.96254966  0.44926557  0.19359649     0.86000
O1460       O  0.96926584  0.47799386  0.15636685    -0.56000
O1461       O  0.54520459  0.02332904  0.15733972    -0.59300
C1462       C  0.73361877  0.50722695  0.08805951     0.03100
C1463       C  0.73359059  0.50815634  0.07266564     0.03100
C1464       C  0.76162279  0.50938269  0.06506268    -0.17400
C1465       C  0.78957373  0.50976042  0.07244109     0.03100
C1466       C  0.78958699  0.50951551  0.08787037     0.03100
C1467       C  0.76161503  0.50812172  0.09544324    -0.17400
H1468       H  0.76155922  0.50757860  0.10725846     0.05100
H1469       H  0.76159043  0.50986332  0.05325565     0.05100
C1470       C  0.53928763  0.00917015  0.99961116     0.03100
C1471       C  0.53901795  0.00899504  0.01508304     0.03100
C1472       C  0.01146879  0.00947439  0.02238742    -0.17400
C1473       C  0.98397717  0.00961423  0.01481716     0.03100
C1474       C  0.98425344  0.00966056  0.99935198     0.03100
C1475       C  0.01216859  0.01004125  0.99204842    -0.17400
H1476       H  0.01267904  0.01084234  0.98024145     0.05100
H1477       H  0.01136555  0.00961531  0.03419398     0.05100
C1478       C  0.46417048  0.45570539  0.66731817     0.03100
C1479       C  0.45419204  0.44995542  0.68212914     0.03100
C1480       C  0.44895987  0.97440955  0.68970407    -0.17400
C1481       C  0.45360020  0.00478183  0.68289294     0.03100
C1482       C  0.46372230  0.01058028  0.66802187     0.03100
C1483       C  0.46852003  0.98581432  0.66042901    -0.17400
H1484       H  0.47635652  0.99033844  0.64909328     0.05100
H1485       H  0.44187257  0.97005560  0.70112313     0.05100
C1486       C  0.92080259  0.03770292  0.02830185    -0.01200
C1487       C  0.90189510  0.01245149  0.03902348     0.07400
C1488       C  0.91002331  0.48627256  0.04174525    -0.07100
C1489       C  0.93663738  0.48507212  0.03409700     0.04900
C1490       C  0.95572003  0.01036757  0.02335874    -0.14400
C1491       C  0.94763856  0.03670818  0.02071224    -0.07700
C1492       C  0.87336711  0.01253908  0.04748356     0.05800
C1493       C  0.83932846  0.48504485  0.04566660    -0.08800
C1494       C  0.81187706  0.48361190  0.05371978     0.00800
C1495       C  0.81818905  0.51020409  0.06378497     0.00700
C1496       C  0.85224415  0.03783965  0.06548360    -0.12400
C1497       C  0.87977573  0.03887707  0.05765854     0.01100
C1498       C  0.77758161  0.45415072  0.05172310     0.40400
C1499       C  0.91454140  0.06651058  0.06065260     0.37100
C1500       C  0.91247584  0.06427889  0.02462723     0.36800
C1501       C  0.94322269  0.45704873  0.03723087     0.37500
N1502       N  0.75004402  0.43060893  0.05013818    -0.43300
N1503       N  0.94243398  0.08854210  0.06311698    -0.43700
N1504       N  0.94871340  0.43472806  0.03973697    -0.41100
N1505       N  0.90571542  0.08552695  0.02168950    -0.42500
H1506       H  0.96224211  0.05649786  0.01263746     0.13700
H1507       H  0.89549537  0.46669908  0.04991694     0.10200
H1508       H  0.83424236  0.46450784  0.03798273     0.11200
H1509       H  0.85740668  0.05872296  0.07295455     0.17000
C1510       C  0.60031276  0.47913994  0.02949903    -0.01200
C1511       C  0.61954540  0.50460830  0.04011185     0.07400
C1512       C  0.61218587  0.03144441  0.04245179    -0.07100
C1513       C  0.58622753  0.03324357  0.03449716     0.04900
C1514       C  0.56672154  0.00769330  0.02391479    -0.14400
C1515       C  0.57395342  0.48062267  0.02165881    -0.07700
C1516       C  0.64838528  0.50477438  0.04850347     0.05800
C1517       C  0.68208697  0.03311849  0.04696643    -0.08800
C1518       C  0.70991111  0.03485180  0.05484797     0.00800
C1519       C  0.70448171  0.50749751  0.06429922     0.00700
C1520       C  0.67075215  0.47913046  0.06582019    -0.12400
C1521       C  0.64272659  0.47796831  0.05832413     0.01100
C1522       C  0.74355996  0.06556577  0.05346203     0.40400
C1523       C  0.60824649  0.44990265  0.06142270     0.37100
C1524       C  0.60811339  0.45208725  0.02606313     0.36800
C1525       C  0.58103622  0.06234054  0.03708864     0.37500
N1526       N  0.77049701  0.09026187  0.05241275    -0.43300
N1527       N  0.58059215  0.42756372  0.06401618    -0.43700
N1528       N  0.57695004  0.08569172  0.03924082    -0.41100
N1529       N  0.61451779  0.43049933  0.02332961    -0.42500
H1530       H  0.55922293  0.46080388  0.01361010     0.13700
H1531       H  0.62705438  0.05129716  0.05047576     0.10200
H1532       H  0.68660300  0.05416835  0.03966362     0.11200
H1533       H  0.66619723  0.45788505  0.07296822     0.17000
C1534       C  0.91383193  0.99332464  0.12191986    -0.01200
C1535       C  0.89445657  0.00958663  0.12543932     0.07400
C1536       C  0.89841459  0.52433719  0.13934860    -0.07100
C1537       C  0.92115276  0.52323077  0.14962058     0.04900
C1538       C  0.93965931  0.00599171  0.14623662    -0.14400
C1539       C  0.93574137  0.99126178  0.13234059    -0.07700
C1540       C  0.86900355  0.01033232  0.11504450     0.05800
C1541       C  0.84216129  0.47886164  0.10948015    -0.08800
C1542       C  0.81668117  0.47822592  0.10029944     0.00800
C1543       C  0.81769486  0.50944506  0.09654781     0.00700
C1544       C  0.84427391  0.04088503  0.10213980    -0.12400
C1545       C  0.87002964  0.04164106  0.11117974     0.01100
C1546       C  0.78885631  0.44517694  0.09534867     0.40400
C1547       C  0.89733732  0.07487668  0.11625703     0.37100
C1548       C  0.91249085  0.97941752  0.10757189     0.36800
C1549       C  0.92414533  0.53914558  0.16365401     0.37500
N1550       N  0.76638084  0.41871691  0.09143750    -0.43300
N1551       N  0.91917391  0.10147894  0.12038118    -0.43700
N1552       N  0.92664982  0.55205276  0.17487391    -0.41100
N1553       N  0.91157978  0.96831906  0.09607797    -0.42500
H1554       H  0.95033161  0.97854770  0.12950342     0.13700
H1555       H  0.88333738  0.53647151  0.14226552     0.10200
H1556       H  0.84060793  0.45459569  0.11261081     0.11200
H1557       H  0.84479128  0.06490928  0.09945985     0.17000
C1558       C  0.62628614  0.99217602  0.14032871    -0.01200
C1559       C  0.62859845  0.00477352  0.12598382     0.07400
C1560       C  0.60502962  0.51521453  0.12148735    -0.07100
C1561       C  0.57963066  0.51341382  0.13104231     0.04900
C1562       C  0.57720559  0.50040785  0.14530024    -0.14400
C1563       C  0.60045125  0.98966827  0.14974247    -0.07700
C1564       C  0.65455641  0.00582222  0.11545473     0.05800
C1565       C  0.65469857  0.47492136  0.11245004    -0.08800
C1566       C  0.67991908  0.47484681  0.10341828     0.00800
C1567       C  0.70512355  0.50596567  0.09685907     0.00700
C1568       C  0.70442192  0.03671404  0.09940940    -0.12400
C1569       C  0.67949230  0.03692704  0.10867464     0.01100
C1570       C  0.67930154  0.44247021  0.10095614     0.40400
C1571       C  0.68095949  0.06957288  0.11150966     0.37100
C1572       C  0.65081105  0.98268063  0.14581620     0.36800
C1573       C  0.55541722  0.52359907  0.12578769     0.37500
N1574       N  0.67858737  0.41644063  0.09890792    -0.43300
N1575       N  0.68214829  0.09575999  0.11375564    -0.43700
N1576       N  0.53585760  0.53158482  0.12161916    -0.41100
N1577       N  0.67048304  0.97510804  0.15022697    -0.42500
H1578       H  0.59900999  0.98013395  0.16075261     0.13700
H1579       H  0.60619708  0.52436490  0.11043088     0.10200
H1580       H  0.63528355  0.45080984  0.11738054     0.11200
H1581       H  0.72394254  0.06071417  0.09444243     0.17000
C1582       C  0.90110171  0.36330737  0.21170029    -0.01200
C1583       C  0.89196607  0.37421205  0.22453888     0.07400
C1584       C  0.90684012  0.40975034  0.22739410    -0.07100
C1585       C  0.93009132  0.43450101  0.21758642     0.04900
C1586       C  0.93906752  0.42377131  0.20456165    -0.14400
C1587       C  0.92478875  0.38804937  0.20191793    -0.07700
C1588       C  0.86556871  0.34913444  0.23479125     0.05800
C1589       C  0.87310998  0.32751060  0.24333557    -0.08800
C1590       C  0.84832761  0.30328200  0.25293943     0.00800
C1591       C  0.81552739  0.30065439  0.25407553     0.00700
C1592       C  0.80811146  0.32229939  0.24553615    -0.12400
C1593       C  0.83284457  0.34660002  0.23604738     0.01100
C1594       C  0.85639840  0.28025666  0.26095249     0.40400
C1595       C  0.82369647  0.36789097  0.22733700     0.37100
C1596       C  0.88503346  0.32696265  0.20799220     0.36800
C1597       C  0.94469976  0.47067176  0.22138986     0.37500
N1598       N  0.86275184  0.26167937  0.26735156    -0.43300
N1599       N  0.81645994  0.38502600  0.22035394    -0.43700
N1600       N  0.95637775  0.49962742  0.22447818    -0.41100
N1601       N  0.87186203  0.29781754  0.20500420    -0.42500
H1602       H  0.93127081  0.37940963  0.19197552     0.13700
H1603       H  0.89989102  0.41815874  0.23728975     0.10200
H1604       H  0.89821963  0.32931984  0.24235821     0.11200
H1605       H  0.78260728  0.31971482  0.24611037     0.17000
C1606       C  0.60788570  0.12683908  0.21405884    -0.01200
C1607       C  0.62492794  0.11716661  0.22443459     0.07400
C1608       C  0.61680334  0.08238451  0.22516288    -0.07100
C1609       C  0.59306203  0.05754818  0.21549625     0.04900
C1610       C  0.57633212  0.06729582  0.20490943    -0.14400
C1611       C  0.58374336  0.10194851  0.20450741    -0.07700
C1612       C  0.65214248  0.14294973  0.23430060     0.05800
C1613       C  0.64411285  0.16259062  0.24385873    -0.08800
C1614       C  0.66946043  0.18753853  0.25304922     0.00800
C1615       C  0.70313378  0.19202499  0.25323596     0.00700
C1616       C  0.71117653  0.17258675  0.24359822    -0.12400
C1617       C  0.68620023  0.14840252  0.23413442     0.01100
C1618       C  0.66106235  0.20995771  0.26130556     0.40400
C1619       C  0.69656934  0.13060111  0.22391955     0.37100
C1620       C  0.61563977  0.16234585  0.21258697     0.36800
C1621       C  0.58654443  0.02241026  0.21683517     0.37500
N1622       N  0.65440128  0.22822091  0.26775029    -0.43300
N1623       N  0.70485985  0.11638585  0.21570348    -0.43700
N1624       N  0.58155480  0.99434457  0.21797176    -0.41100
N1625       N  0.62172981  0.19076135  0.21137455    -0.42500
H1626       H  0.57119817  0.10989791  0.19647722     0.13700
H1627       H  0.62946869  0.07469553  0.23325096     0.10200
H1628       H  0.61815304  0.15893038  0.24390927     0.11200
H1629       H  0.73732828  0.17674458  0.24333630     0.17000
C1630       C  0.65491425  0.17331220  0.30355940    -0.01200
C1631       C  0.64745404  0.13852297  0.30287072     0.07400
C1632       C  0.66781642  0.13016920  0.29393689    -0.07100
C1633       C  0.69508353  0.15576213  0.28568618     0.04900
C1634       C  0.70210257  0.19042074  0.28617122    -0.14400
C1635       C  0.68215773  0.19887272  0.29531277    -0.07700
C1636       C  0.61814348  0.11040863  0.31115158     0.05800
C1637       C  0.58425881  0.10297196  0.30808326    -0.08800
C1638       C  0.55585533  0.07671219  0.31558707     0.00800
C1639       C  0.56104377  0.05697836  0.32635634     0.00700
C1640       C  0.59499400  0.06403060  0.32917613    -0.12400
C1641       C  0.62342451  0.09070573  0.32184788     0.01100
C1642       C  0.52181462  0.07119393  0.31223127     0.40400
C1643       C  0.65781776  0.09805821  0.32580117     0.37100
C1644       C  0.63543917  0.18352877  0.31286511     0.36800
C1645       C  0.71615138  0.14602952  0.27719992     0.37500
N1646       N  0.99457286  0.06681269  0.30946125    -0.43300
N1647       N  0.68538801  0.10403279  0.32900424    -0.43700
N1648       N  0.73301449  0.13819176  0.27039297    -0.41100
N1649       N  0.61982340  0.19173980  0.32030771    -0.42500
H1650       H  0.68778559  0.22556600  0.29591601     0.13700
H1651       H  0.66232119  0.10351763  0.29339962     0.10200
H1652       H  0.58001803  0.11786858  0.29979560     0.11200
H1653       H  0.59935119  0.04870719  0.33720001     0.17000
C1654       C  0.86182372  0.32455087  0.30356001    -0.01200
C1655       C  0.86483312  0.35776160  0.30332737     0.07400
C1656       C  0.84123341  0.36273947  0.29497299    -0.07100
C1657       C  0.81530232  0.33550822  0.28681490     0.04900
C1658       C  0.81299338  0.30269336  0.28672239    -0.14400
C1659       C  0.83592966  0.29736458  0.29534919    -0.07700
C1660       C  0.89313234  0.38786694  0.31125804     0.05800
C1661       C  0.92765980  0.39859003  0.30770071    -0.08800
C1662       C  0.95520027  0.42646406  0.31492338     0.00800
C1663       C  0.94850797  0.44455655  0.32595267     0.00700
C1664       C  0.91388281  0.43459066  0.32912212    -0.12400
C1665       C  0.88632917  0.40633698  0.32203504     0.01100
C1666       C  0.99004247  0.43499368  0.31118181     0.40400
C1667       C  0.85136874  0.39613555  0.32635560     0.37100
C1668       C  0.88476110  0.31764132  0.31224523     0.36800
C1669       C  0.79067339  0.34148399  0.27896464     0.37500
N1670       N  0.01798606  0.44190883  0.30817385    -0.43300
N1671       N  0.82337468  0.38801347  0.32984321    -0.43700
N1672       N  0.77076468  0.34610553  0.27271241    -0.41100
N1673       N  0.90322662  0.31212497  0.31915566    -0.42500
H1674       H  0.83375406  0.27195509  0.29555826     0.13700
H1675       H  0.84323925  0.38807067  0.29474701     0.10200
H1676       H  0.93312061  0.38487494  0.29928636     0.11200
H1677       H  0.90832408  0.44861095  0.33735166     0.17000
C1678       C  0.93806392  0.03868968  0.97273122    -0.01200
C1679       C  0.90306311  0.01212246  0.97408072     0.07400
C1680       C  0.89536327  0.48342195  0.98299306    -0.07100
C1681       C  0.92137896  0.48165925  0.99096211     0.04900
C1682       C  0.95591760  0.00944309  0.99046170    -0.14400
C1683       C  0.96392337  0.03740201  0.98103696    -0.07700
C1684       C  0.87409713  0.01346225  0.96631916     0.05800
C1685       C  0.85176826  0.48573318  0.95722173    -0.08800
C1686       C  0.82416077  0.48592750  0.94988676     0.00800
C1687       C  0.81883912  0.01454597  0.95133349     0.00700
C1688       C  0.83988607  0.04130619  0.96098484    -0.12400
C1689       C  0.86728410  0.04104096  0.96842403     0.01100
C1690       C  0.80083246  0.45602618  0.94132258     0.40400
C1691       C  0.88760200  0.06918187  0.97833765     0.37100
C1692       C  0.94828755  0.06693828  0.96254751     0.36800
C1693       C  0.91212518  0.45047743  0.99912682     0.37500
N1694       N  0.78182843  0.43213041  0.93449896    -0.43300
N1695       N  0.90399619  0.09196773  0.98617635    -0.43700
N1696       N  0.90448418  0.42523591  0.00553581    -0.41100
N1697       N  0.95645136  0.08955215  0.95437662    -0.42500
H1698       H  0.99052418  0.05834362  0.98017908     0.13700
H1699       H  0.86882746  0.46231256  0.98378036     0.10200
H1700       H  0.85592420  0.46386454  0.95584159     0.11200
H1701       H  0.83541155  0.06296230  0.96242866     0.17000
C1702       C  0.67314730  0.04301492  0.95625586    -0.01200
C1703       C  0.65164024  0.01432684  0.96518811     0.07400
C1704       C  0.65736385  0.48599837  0.96565814    -0.07100
C1705       C  0.68460195  0.48641142  0.95782179     0.04900
C1706       C  0.70714303  0.01580618  0.94947201    -0.14400
C1707       C  0.70110196  0.04391850  0.94884358    -0.07700
C1708       C  0.62321491  0.01331050  0.97417574     0.05800
C1709       C  0.58898258  0.48672839  0.97179576    -0.08800
C1710       C  0.56155289  0.48467017  0.98006803     0.00800
C1711       C  0.56803925  0.00968201  0.99098256     0.00700
C1712       C  0.60240385  0.03602680  0.99347066    -0.12400
C1713       C  0.62987567  0.03775069  0.98533638     0.01100
C1714       C  0.52703454  0.45623379  0.97731717     0.40400
C1715       C  0.66479005  0.06431021  0.98887614     0.37100
C1716       C  0.66643363  0.07133155  0.95417832     0.36800
C1717       C  0.68868133  0.45620096  0.95837790     0.37500
N1718       N  0.99932754  0.43355395  0.97508389    -0.43300
N1719       N  0.69283899  0.08557190  0.99163267    -0.43700
N1720       N  0.69195435  0.43197789  0.95879361    -0.41100
N1721       N  0.66092907  0.09392025  0.95244173    -0.42500
H1722       H  0.71841519  0.06680445  0.94263327     0.13700
H1723       H  0.64062845  0.46357478  0.97227720     0.10200
H1724       H  0.58367152  0.46753528  0.96340619     0.11200
H1725       H  0.60780489  0.05538217  0.00179045     0.17000
C1726       C  0.84090638  0.49211706  0.90068355    -0.01200
C1727       C  0.87610669  0.51706977  0.90292010     0.07400
C1728       C  0.88457102  0.04417098  0.91283584    -0.07100
C1729       C  0.85868465  0.04642170  0.92060867     0.04900
C1730       C  0.82359681  0.02052131  0.91885656    -0.14400
C1731       C  0.81517373  0.49384472  0.90872222    -0.07700
C1732       C  0.90389871  0.51714224  0.89392480     0.05800
C1733       C  0.92337067  0.04544549  0.88467385    -0.08800
C1734       C  0.94662765  0.04477657  0.87461047     0.00800
C1735       C  0.94986486  0.01479477  0.87338044     0.00700
C1736       C  0.93179973  0.48729793  0.88320878    -0.12400
C1737       C  0.90969472  0.48870494  0.89369768     0.01100
C1738       C  0.96552032  0.07460904  0.86527902     0.40400
C1739       C  0.89393229  0.46120667  0.90434796     0.37100
C1740       C  0.83036123  0.46552283  0.88967551     0.36800
C1741       C  0.86869091  0.07669981  0.92951886     0.37500
N1742       N  0.98077055  0.09866467  0.85788898    -0.43300
N1743       N  0.88163615  0.43941478  0.91300253    -0.43700
N1744       N  0.87706435  0.10125803  0.93652961    -0.41100
N1745       N  0.82192911  0.44429590  0.88081993    -0.42500
H1746       H  0.78824096  0.47432925  0.90703124     0.13700
H1747       H  0.91145467  0.06411020  0.91422565     0.10200
H1748       H  0.91956744  0.06770759  0.88499745     0.11200
H1749       H  0.93512420  0.46475905  0.88275419     0.17000
C1750       C  0.59788116  0.98754267  0.88860188    -0.01200
C1751       C  0.63359364  0.01121041  0.88681269     0.07400
C1752       C  0.64454028  0.53304559  0.87452763    -0.07100
C1753       C  0.62064153  0.53260659  0.86445003     0.04900
C1754       C  0.58481732  0.00953802  0.86646348    -0.14400
C1755       C  0.57404650  0.98685085  0.87847356    -0.07700
C1756       C  0.65997869  0.01351237  0.89748853     0.05800
C1757       C  0.66147508  0.48348207  0.90097328    -0.08800
C1758       C  0.68622260  0.48481693  0.91078065     0.00800
C1759       C  0.71091759  0.01682402  0.91688867     0.00700
C1760       C  0.70999135  0.04695103  0.91321735    -0.12400
C1761       C  0.68424565  0.04541280  0.90395855     0.01100
C1762       C  0.68604557  0.45308086  0.91432559     0.40400
C1763       C  0.68275628  0.07676192  0.90159825     0.37100
C1764       C  0.58475933  0.96426629  0.90092031     0.36800
C1765       C  0.63387439  0.55563088  0.85207056     0.37500
N1766       N  0.68578449  0.42760455  0.91720875    -0.43300
N1767       N  0.68148288  0.10186223  0.89976956    -0.43700
N1768       N  0.64482965  0.57416987  0.84218155    -0.41100
N1769       N  0.57413646  0.94538226  0.91071167    -0.42500
H1770       H  0.54669059  0.96885691  0.88017549     0.13700
H1771       H  0.67198608  0.55058290  0.87280467     0.10200
H1772       H  0.64339172  0.45892462  0.89594776     0.11200
H1773       H  0.72942627  0.07175662  0.91760919     0.17000
C1774       C  0.96036980  0.09310450  0.80251553    -0.01200
C1775       C  0.98262278  0.10896254  0.79050677     0.07400
C1776       C  0.51176980  0.10487055  0.78886098    -0.07100
C1777       C  0.51873304  0.08518535  0.79882895     0.04900
C1778       C  0.49595712  0.06870872  0.81058778    -0.14400
C1779       C  0.96683112  0.07271217  0.81221059    -0.07700
C1780       C  0.97745711  0.13194354  0.78021120     0.05800
C1781       C  0.50439534  0.16633034  0.77845513    -0.08800
C1782       C  0.50008485  0.18977221  0.76975343     0.00800
C1783       C  0.46798621  0.17920892  0.76286666     0.00700
C1784       C  0.94135493  0.14456220  0.76429258    -0.12400
C1785       C  0.94616905  0.12070981  0.77248782     0.01100
C1786       C  0.52913093  0.22441682  0.76795042     0.40400
C1787       C  0.91891611  0.08480761  0.77253188     0.37100
C1788       C  0.93162928  0.09854488  0.80556548     0.36800
C1789       C  0.54874195  0.08144722  0.79649357     0.37500
N1790       N  0.55248745  0.25213827  0.76648452    -0.43300
N1791       N  0.89702369  0.05606294  0.77253118    -0.43700
N1792       N  0.57279396  0.07842612  0.79464475    -0.41100
N1793       N  0.90850353  0.10274875  0.80800227    -0.42500
H1794       H  0.94944206  0.06051786  0.82133988     0.13700
H1795       H  0.52919025  0.11718813  0.77975961     0.10200
H1796       H  0.52877518  0.17506908  0.78409300     0.11200
H1797       H  0.91655999  0.13615309  0.75910991     0.17000
C1798       C  0.48886184  0.35110609  0.76665125    -0.01200
C1799       C  0.47332815  0.34612884  0.78051291     0.07400
C1800       C  0.95169806  0.31219934  0.78552290    -0.07100
C1801       C  0.94606973  0.28346908  0.77721386     0.04900
C1802       C  0.46262653  0.28825836  0.76353547    -0.14400
C1803       C  0.48412384  0.32236663  0.75848256    -0.07700
C1804       C  0.47960940  0.37554236  0.79024956     0.05800
C1805       C  0.95123592  0.37846466  0.79504465    -0.08800
C1806       C  0.95555192  0.40401533  0.80513140     0.00800
C1807       C  0.98887411  0.42727343  0.81067152     0.00700
C1808       C  0.51730137  0.42469137  0.80567078    -0.12400
C1809       C  0.51292936  0.39895748  0.79570825     0.01100
C1810       C  0.92552288  0.40634799  0.80927183     0.40400
C1811       C  0.54282348  0.39615592  0.79179734     0.37100
C1812       C  0.50909690  0.38535032  0.76044028     0.36800
C1813       C  0.92305341  0.24931817  0.78304575     0.37500
N1814       N  0.90153645  0.40838013  0.81257790    -0.43300
N1815       N  0.56680727  0.39398145  0.78863666    -0.43700
N1816       N  0.90498422  0.22194212  0.78778050    -0.41100
N1817       N  0.52525668  0.41278481  0.75543935    -0.42500
H1818       H  0.49737897  0.32666458  0.74814555     0.13700
H1819       H  0.93943911  0.30813871  0.79610529     0.10200
H1820       H  0.92554428  0.36054679  0.79092123     0.11200
H1821       H  0.54301839  0.44230339  0.80985434     0.17000
C1822       C  0.91754110  0.11114761  0.72177940    -0.01200
C1823       C  0.44832753  0.11359837  0.71622622     0.07400
C1824       C  0.47978094  0.14480737  0.71817847    -0.07100
C1825       C  0.48107910  0.17264005  0.72585826     0.04900
C1826       C  0.45038481  0.17007778  0.73134966    -0.14400
C1827       C  0.91875330  0.13951672  0.72902557    -0.07700
C1828       C  0.44842298  0.08427257  0.70825767     0.05800
C1829       C  0.92643790  0.06928956  0.69619696    -0.08800
C1830       C  0.92631664  0.04225056  0.68827806     0.00800
C1831       C  0.44990309  0.03088419  0.69184299     0.00700
C1832       C  0.47118912  0.04515502  0.70415434    -0.12400
C1833       C  0.47048268  0.07137272  0.71238456     0.01100
C1834       C  0.90057158  0.02557028  0.67703392     0.40400
C1835       C  0.49217694  0.08414950  0.72518287     0.37100
C1836       C  0.88460987  0.07944092  0.72070345     0.36800
C1837       C  0.51419379  0.20364909  0.72800313     0.37500
N1838       N  0.87952897  0.01217393  0.66815930    -0.43300
N1839       N  0.50949173  0.09452964  0.73544748    -0.43700
N1840       N  0.54070418  0.22850468  0.72977559    -0.41100
N1841       N  0.85820414  0.05402997  0.71983332    -0.42500
H1842       H  0.89510842  0.13747052  0.73329166     0.13700
H1843       H  0.50350500  0.14738729  0.71374381     0.10200
H1844       H  0.90915729  0.07867232  0.69295973     0.11200
H1845       H  0.48889615  0.03614983  0.70720863     0.17000
C1846       C  0.48172023  0.39476737  0.70321366    -0.01200
C1847       C  0.44973835  0.36426540  0.70606683     0.07400
C1848       C  0.91894479  0.36319335  0.70166011    -0.07100
C1849       C  0.91978191  0.39121700  0.69424606     0.04900
C1850       C  0.45183821  0.42004247  0.69028557    -0.14400
C1851       C  0.48253131  0.42163370  0.69493494    -0.07700
C1852       C  0.44779918  0.33394888  0.71406271     0.05800
C1853       C  0.92514054  0.31962640  0.72599800    -0.08800
C1854       C  0.92358964  0.29204943  0.73409249     0.00800
C1855       C  0.44631273  0.27949476  0.73078694     0.00700
C1856       C  0.46761941  0.29260000  0.71843990    -0.12400
C1857       C  0.46778771  0.31873483  0.70987421     0.01100
C1858       C  0.89785433  0.27645906  0.74541290     0.40400
C1859       C  0.48791998  0.32860094  0.69660761     0.37100
C1860       C  0.51386237  0.40024665  0.70942453     0.36800
C1861       C  0.88756015  0.39034701  0.69122172     0.37500
N1862       N  0.87704350  0.26383462  0.75441795    -0.43300
N1863       N  0.50416375  0.33652281  0.68601504    -0.43700
N1864       N  0.86177014  0.38989058  0.68897354    -0.41100
N1865       N  0.53964258  0.40475242  0.71442347    -0.42500
H1866       H  0.50718337  0.44458690  0.69252674     0.13700
H1867       H  0.89413564  0.34057775  0.70416633     0.10200
H1868       H  0.90864798  0.33006766  0.72905040     0.11200
H1869       H  0.48433368  0.28234363  0.71546775     0.17000
C1870       C  0.53772543  0.40190740  0.54726974    -0.01200
C1871       C  0.51311972  0.38632708  0.55849631     0.07400
C1872       C  0.98768582  0.39572141  0.56038051    -0.07100
C1873       C  0.98581764  0.41959300  0.55103573     0.04900
C1874       C  0.50990982  0.43463405  0.53948634    -0.14400
C1875       C  0.53604441  0.42595511  0.53792593    -0.07700
C1876       C  0.01258191  0.35925589  0.56810071     0.05800
C1877       C  0.53988164  0.36813119  0.57796009    -0.08800
C1878       C  0.53967973  0.34311332  0.58732482     0.00800
C1879       C  0.51168740  0.30879668  0.58692855     0.00700
C1880       C  0.98477259  0.29983591  0.57688701    -0.12400
C1881       C  0.98489059  0.32472983  0.56757147     0.01100
C1882       C  0.56870807  0.35283843  0.59696204     0.40400
C1883       C  0.95655292  0.31411921  0.55743131     0.37100
C1884       C  0.56404353  0.39259562  0.54478500     0.36800
C1885       C  0.95925660  0.42846915  0.55378536     0.37500
N1886       N  0.59196575  0.36041495  0.60467621    -0.43300
N1887       N  0.93379255  0.30556577  0.54933351    -0.43700
N1888       N  0.93798041  0.43556190  0.55603550    -0.41100
N1889       N  0.58512160  0.38510875  0.54278285    -0.42500
H1890       H  0.55469577  0.43727966  0.52914594     0.13700
H1891       H  0.96901379  0.38406448  0.56914601     0.10200
H1892       H  0.56129288  0.39461583  0.57833128     0.11200
H1893       H  0.96336879  0.27332697  0.57648242     0.17000
C1894       C  0.97267510  0.08148899  0.56031843    -0.01200
C1895       C  0.00125220  0.11541862  0.56198115     0.07400
C1896       C  0.53145796  0.12476578  0.55392165    -0.07100
C1897       C  0.53325602  0.10164172  0.54412075     0.04900
C1898       C  0.50358212  0.06896625  0.54144045    -0.14400
C1899       C  0.97363371  0.05913821  0.54976934    -0.07700
C1900       C  0.00085998  0.14164136  0.57207953     0.05800
C1901       C  0.52949778  0.16078368  0.58128325    -0.08800
C1902       C  0.53236905  0.18844625  0.58963797     0.00800
C1903       C  0.50462007  0.19516709  0.59010719     0.00700
C1904       C  0.97586867  0.17597980  0.58104844    -0.12400
C1905       C  0.97448388  0.15054544  0.57162591     0.01100
C1906       C  0.56536722  0.21155766  0.59629066     0.40400
C1907       C  0.94769327  0.13676716  0.56064019     0.37100
C1908       C  0.94274557  0.06841050  0.56970413     0.36800
C1909       C  0.56609401  0.11233958  0.53713444     0.37500
N1910       N  0.59213026  0.23013471  0.60139751    -0.43300
N1911       N  0.92640535  0.12607199  0.55175642    -0.43700
N1912       N  0.59272204  0.12092457  0.53182500    -0.41100
N1913       N  0.91879577  0.05795890  0.57724394    -0.42500
H1914       H  0.95120083  0.03354155  0.54831359     0.13700
H1915       H  0.55391697  0.15039059  0.55527192     0.10200
H1916       H  0.55066786  0.15534140  0.58134854     0.11200
H1917       H  0.95541128  0.18246478  0.58069026     0.17000
C1918       C  0.95323504  0.06788410  0.64029586    -0.01200
C1919       C  0.47833479  0.10159860  0.64491443     0.07400
C1920       C  0.49903026  0.10497927  0.65707355    -0.07100
C1921       C  0.49585387  0.07580578  0.66428650     0.04900
C1922       C  0.46977761  0.04232423  0.66008959    -0.14400
C1923       C  0.94903694  0.03874234  0.64795649    -0.07700
C1924       C  0.48421080  0.13361622  0.63710710     0.05800
C1925       C  0.95605708  0.13881670  0.63424029    -0.08800
C1926       C  0.96080639  0.16828285  0.62663711     0.00800
C1927       C  0.49432138  0.19377563  0.62230627     0.00700
C1928       C  0.52258092  0.18995982  0.62616126    -0.12400
C1929       C  0.51780649  0.15965397  0.63284476     0.01100
C1930       C  0.93108048  0.17192226  0.62336553     0.40400
C1931       C  0.54770369  0.15534859  0.63443105     0.37100
C1932       C  0.93215570  0.06222706  0.62750662     0.36800
C1933       C  0.52103671  0.08090600  0.67533458     0.37500
N1934       N  0.90739059  0.17508055  0.62074050    -0.43300
N1935       N  0.57174669  0.15200871  0.63558141    -0.43700
N1936       N  0.54159907  0.08519744  0.68404405    -0.41100
N1937       N  0.91512451  0.05745715  0.61728392    -0.42500
H1938       H  0.92940894  0.01300501  0.64448617     0.13700
H1939       H  0.51834092  0.13058798  0.66079340     0.10200
H1940       H  0.93028369  0.11971086  0.63782818     0.11200
H1941       H  0.54850634  0.21049630  0.62366246     0.17000
C1942       C  0.51265173  0.41803318  0.64733806    -0.01200
C1943       C  0.48539615  0.38562972  0.64245625     0.07400
C1944       C  0.95114860  0.37658251  0.64587586    -0.07100
C1945       C  0.94375167  0.39916600  0.65369411     0.04900
C1946       C  0.47094069  0.43106930  0.65886096    -0.14400
C1947       C  0.50524521  0.44025827  0.65552746    -0.07700
C1948       C  0.49172101  0.36050973  0.63397432     0.05800
C1949       C  0.51438411  0.34990511  0.63954520    -0.08800
C1950       C  0.51973569  0.32525186  0.63223897     0.00800
C1951       C  0.50080048  0.30908194  0.61944071     0.00700
C1952       C  0.97787891  0.31947613  0.61397637    -0.12400
C1953       C  0.97419028  0.34567356  0.62076556     0.01100
C1954       C  0.54543002  0.31764035  0.63795211     0.40400
C1955       C  0.95294986  0.35746986  0.61368835     0.37100
C1956       C  0.54830350  0.42950349  0.64372451     0.36800
C1957       C  0.90796346  0.38966361  0.65557351     0.37500
N1958       N  0.56609582  0.31160863  0.64249774    -0.43300
N1959       N  0.93608849  0.36699325  0.60792997    -0.43700
N1960       N  0.87909269  0.38176646  0.65673335    -0.41100
N1961       N  0.57682291  0.43847024  0.64081417    -0.42500
H1962       H  0.52627638  0.46501337  0.65924954     0.13700
H1963       H  0.92994420  0.35178131  0.64229569     0.10200
H1964       H  0.52792268  0.36083263  0.64969577     0.11200
H1965       H  0.96257871  0.30703866  0.60437254     0.17000
C1966       C  0.67844176  0.14371720  0.44482193    -0.01200
C1967       C  0.64998225  0.14579330  0.45059838     0.07400
C1968       C  0.64682233  0.17490588  0.44702019    -0.07100
C1969       C  0.67107781  0.20138150  0.43809213     0.04900
C1970       C  0.69809650  0.19820906  0.43175757    -0.14400
C1971       C  0.70155303  0.16936499  0.43518198    -0.07700
C1972       C  0.62406228  0.11935997  0.46089362     0.05800
C1973       C  0.61467856  0.13103565  0.47341782    -0.08800
C1974       C  0.58872657  0.10774246  0.48283045     0.00800
C1975       C  0.57391691  0.07171679  0.48066963     0.00700
C1976       C  0.58307941  0.05978326  0.46825023    -0.12400
C1977       C  0.60649544  0.08323362  0.45800940     0.01100
C1978       C  0.57686846  0.12153181  0.49427094     0.40400
C1979       C  0.60941893  0.06970011  0.44412409     0.37100
C1980       C  0.68599068  0.11697498  0.44919252     0.36800
C1981       C  0.66793909  0.23177855  0.43561359     0.37500
N1982       N  0.56664520  0.13267244  0.50311346    -0.43300
N1983       N  0.61146325  0.05887849  0.43293694    -0.43700
N1984       N  0.66563196  0.25623139  0.43356275    -0.41100
N1985       N  0.69230547  0.09563259  0.45254519    -0.42500
H1986       H  0.72321772  0.16764583  0.43075755     0.13700
H1987       H  0.62548978  0.17727828  0.45137767     0.10200
H1988       H  0.62693471  0.15861799  0.47565389     0.11200
H1989       H  0.57042537  0.03211317  0.46614186     0.17000
C1990       C  0.91813481  0.39726192  0.45935973    -0.01200
C1991       C  0.88356921  0.39010138  0.45890248     0.07400
C1992       C  0.87243175  0.40595324  0.46909384    -0.07100
C1993       C  0.89509821  0.42843162  0.47977017     0.04900
C1994       C  0.92980757  0.43558728  0.48027378    -0.14400
C1995       C  0.94080409  0.41974351  0.46995443    -0.07700
C1996       C  0.85791224  0.36339917  0.44887688     0.05800
C1997       C  0.84987550  0.32893007  0.45083638    -0.08800
C1998       C  0.82501864  0.30232112  0.44218236     0.00800
C1999       C  0.80774136  0.30996913  0.43110693     0.00700
C2000       C  0.81610738  0.34466299  0.42900003    -0.12400
C2001       C  0.84082639  0.37131227  0.43785715     0.01100
C2002       C  0.81726832  0.26725135  0.44515783     0.40400
C2003       C  0.84801480  0.40643549  0.43558914     0.37100
C2004       C  0.93094402  0.38188996  0.44900739     0.36800
C2005       C  0.88151200  0.44243429  0.49039069     0.37500
N2006       N  0.81067849  0.23912479  0.44774826    -0.43300
N2007       N  0.85369933  0.43460334  0.43388889    -0.43700
N2008       N  0.87052584  0.45349159  0.49894240    -0.41100
N2009       N  0.94110049  0.36950025  0.44070603    -0.42500
H2010       H  0.96730884  0.42494102  0.47011079     0.13700
H2011       H  0.84564374  0.39988901  0.46897537     0.10200
H2012       H  0.86267874  0.32270526  0.45940769     0.11200
H2013       H  0.80266209  0.35078927  0.42069603     0.17000
C2014       C  0.63477277  0.15853034  0.39431277    -0.01200
C2015       C  0.64157280  0.13903976  0.38406699     0.07400
C2016       C  0.67610755  0.14760840  0.38164336    -0.07100
C2017       C  0.70349301  0.17489020  0.38927100     0.04900
C2018       C  0.69675894  0.19518094  0.39913573    -0.14400
C2019       C  0.66224325  0.18685956  0.40134944    -0.07700
C2020       C  0.61311905  0.11018614  0.37560008     0.05800
C2021       C  0.59081369  0.11701848  0.36716589    -0.08800
C2022       C  0.56372196  0.09066062  0.35909510     0.00800
C2023       C  0.55924143  0.05692732  0.35897362     0.00700
C2024       C  0.58118580  0.04992887  0.36752464    -0.12400
C2025       C  0.60780716  0.07608948  0.37585221     0.01100
C2026       C  0.53992785  0.09843817  0.35157383     0.40400
C2027       C  0.62847941  0.06699133  0.38497943     0.37100
C2028       C  0.59977843  0.14905723  0.39828161     0.36800
C2029       C  0.73812996  0.18081067  0.38714986     0.37500
N2030       N  0.52065832  0.10464250  0.34569863    -0.43300
N2031       N  0.64498214  0.05970066  0.39234325    -0.43700
N2032       N  0.76592478  0.18556259  0.38553938    -0.41100
N2033       N  0.57173056  0.14120650  0.40156392    -0.42500
H2034       H  0.65660674  0.20243575  0.40864974     0.13700
H2035       H  0.68167323  0.13276773  0.37383347     0.10200
H2036       H  0.59441720  0.14300772  0.36698644     0.11200
H2037       H  0.57746687  0.02389225  0.36767442     0.17000
C2038       C  0.90389383  0.42459948  0.37671563    -0.01200
C2039       C  0.89609604  0.38982796  0.37521367     0.07400
C2040       C  0.91617589  0.38228862  0.36573021    -0.07100
C2041       C  0.94332271  0.40863737  0.35766752     0.04900
C2042       C  0.95021805  0.44323920  0.35874758    -0.14400
C2043       C  0.93059851  0.45083165  0.36847760    -0.07700
C2044       C  0.86658520  0.36101841  0.38318920     0.05800
C2045       C  0.83296973  0.35526320  0.38082419    -0.08800
C2046       C  0.80455912  0.32928390  0.38842482     0.00800
C2047       C  0.80934714  0.30784965  0.39840066     0.00700
C2048       C  0.84288263  0.31316209  0.40057347    -0.12400
C2049       C  0.87143547  0.33968709  0.39320818     0.01100
C2050       C  0.77106822  0.32630127  0.38632815     0.40400
C2051       C  0.90558110  0.34555793  0.39663428     0.37100
C2052       C  0.88533509  0.43406162  0.38690446     0.36800
C2053       C  0.96415942  0.39953972  0.34868670     0.39600
N2054       N  0.74432100  0.32417500  0.38468249    -0.43300
N2055       N  0.93295169  0.35036158  0.39945913    -0.43700
N2056       N  0.48069804  0.39189659  0.34155059    -0.41100
N2057       N  0.87041115  0.44147327  0.39511486    -0.42500
H2058       H  0.93605141  0.47738754  0.36956200     0.13700
H2059       H  0.91053793  0.35568402  0.36459915     0.10200
H2060       H  0.82901700  0.37156325  0.37316432     0.11200
H2061       H  0.84682334  0.29693701  0.40827508     0.17000
C2062       C  0.77997497  0.78052805  0.40698345     0.03100
C2063       C  0.77946536  0.78166894  0.42239652     0.03100
C2064       C  0.75145724  0.75500783  0.42994673    -0.17400
C2065       C  0.72494939  0.72642861  0.42269622     0.03100
C2066       C  0.72515092  0.72485551  0.40731518     0.03100
C2067       C  0.75256986  0.75230757  0.39963212    -0.17400
H2068       H  0.75285002  0.75149993  0.38783888     0.05100
H2069       H  0.75058649  0.75610563  0.44172753     0.05100
C2070       C  0.50965564  0.78128522  0.59666308     0.03100
C2071       C  0.50391867  0.78084567  0.61188676     0.03100
C2072       C  0.49925547  0.75189495  0.62000937    -0.17400
C2073       C  0.50050807  0.72408594  0.61335692     0.03100
C2074       C  0.50665181  0.72504872  0.59822135     0.03100
C2075       C  0.51115876  0.75362786  0.59011519    -0.17400
H2076       H  0.51499822  0.75393202  0.57843860     0.05100
H2077       H  0.49367931  0.75047432  0.63155506     0.05100
In2078     In  0.00327580  0.50173755  0.51009243     1.36900
C2079       C  0.50321268  0.54479318  0.53018640     0.78400
O2080       O  0.98057279  0.95982624  0.52675872    -0.60000
O2081       O  0.53311539  0.97923883  0.52094273    -0.50900
C2082       C  0.95536325  0.95913801  0.49122146     0.71100
O2083       O  0.95114306  0.98004159  0.49910166    -0.45800
C2084       C  0.54844513  0.54631917  0.49100794     0.75800
O2085       O  0.97576686  0.52231076  0.52394324    -0.57700
O2086       O  0.55137650  0.52174618  0.49640301    -0.47700
O2087       O  0.53031584  0.54509764  0.52600007    -0.54100
C2088       C  0.50788372  0.95860444  0.52881522     0.86000
O2089       O  0.98383772  0.96015084  0.49320684    -0.56000
O2090       O  0.52231119  0.54781124  0.49528460    -0.59300
C2091       C  0.44892985  0.75289046  0.73979264     0.03100
C2092       C  0.45843343  0.75792306  0.75479177     0.03100
C2093       C  0.46491396  0.73357324  0.76181434    -0.17400
C2094       C  0.46132266  0.70416240  0.75461261     0.03100
C2095       C  0.45118808  0.69885252  0.73985385     0.03100
C2096       C  0.44503853  0.72308314  0.73265588    -0.17400
H2097       H  0.43819101  0.71922914  0.72119560     0.05100
H2098       H  0.97319970  0.73767120  0.77310170     0.05100
In2099     In  0.00706082  0.00503955  0.84019187     1.36900
C2100       C  0.99507455  0.95459098  0.82148542     0.78400
O2101       O  0.97536877  0.51986442  0.82651661    -0.60000
O2102       O  0.53019522  0.55219893  0.82562316    -0.50900
C2103       C  0.97083797  0.51108370  0.86175046     0.71100
O2104       O  0.96282778  0.98209039  0.85605687    -0.45800
C2105       C  0.55776434  0.50832946  0.85659530     0.75800
O2106       O  0.97227218  0.95262927  0.83023506    -0.57700
O2107       O  0.56268921  0.53227864  0.84776862    -0.47700
O2108       O  0.52405092  0.98193716  0.82267079    -0.54100
C2109       C  0.50088027  0.54639800  0.82114154     0.86000
O2110       O  0.99770734  0.53663416  0.85654187    -0.56000
O2111       O  0.52719257  0.98301186  0.85671605    -0.59300
C2112       C  0.73947534  0.51956040  0.92615858     0.03100
C2113       C  0.73735509  0.51785263  0.94153419     0.03100
C2114       C  0.76409351  0.51722553  0.94952306    -0.17400
C2115       C  0.79243796  0.51775951  0.94248624     0.03100
C2116       C  0.79490523  0.52068015  0.92710738     0.03100
C2117       C  0.76831207  0.52141150  0.91918706    -0.17400
H2118       H  0.76968838  0.52267714  0.90739273     0.05100
H2119       H  0.76238483  0.51542462  0.96129669     0.05100
C2120       C  0.78606984  0.77335822  0.27808706     0.03100
C2121       C  0.78706545  0.77292740  0.26271101     0.03100
C2122       C  0.75978487  0.74587352  0.25505405    -0.17400
C2123       C  0.73143267  0.71898725  0.26230567     0.03100
C2124       C  0.73086365  0.71860870  0.27773514     0.03100
C2125       C  0.75817304  0.74595447  0.28542422    -0.17400
H2126       H  0.75752702  0.74610304  0.29722705     0.05100
H2127       H  0.76042138  0.74603009  0.24324297     0.05100
C2128       C  0.97778837  0.97219823  0.35004201     0.03100
C2129       C  0.97713270  0.97298669  0.33458617     0.03100
C2130       C  0.00415557  0.00140240  0.32721268    -0.17400
C2131       C  0.53165801  0.52888426  0.33476714     0.03100
C2132       C  0.53159229  0.52833325  0.35020052     0.03100
C2133       C  0.00482480  0.00003083  0.35757986    -0.17400
H2134       H  0.00507503  0.99963070  0.36939722     0.05100
H2135       H  0.00397530  0.00194172  0.31541030     0.05100
In2136     In  0.00647570  0.49735292  0.17508578     1.36900
C2137       C  0.55147748  0.54236774  0.19413843     0.78400
O2138       O  0.96723501  0.97958532  0.19280601    -0.60000
O2139       O  0.97954854  0.94275049  0.18435757    -0.50900
C2140       C  0.96308708  0.50276867  0.15681961     0.71100
O2141       O  0.97880101  0.52452911  0.16683696    -0.45800
C2142       C  0.55156152  0.99885968  0.15589664     0.75800
O2143       O  0.53229752  0.54918128  0.18629885    -0.57700
O2144       O  0.53483441  0.97337707  0.16437249    -0.47700
O2145       O  0.54779690  0.51273622  0.19195458    -0.54100
C2146       C  0.96253996  0.94926939  0.19359997     0.86000
O2147       O  0.96925419  0.97799248  0.15636961    -0.56000
O2148       O  0.54521998  0.52332986  0.15733954    -0.59300
C2149       C  0.73361368  0.00722828  0.08806175     0.03100
C2150       C  0.73358513  0.00815786  0.07266772     0.03100
C2151       C  0.76161638  0.00938281  0.06506443    -0.17400
C2152       C  0.78956750  0.00976110  0.07244251     0.03100
C2153       C  0.78958022  0.00951370  0.08787161     0.03100
C2154       C  0.76160916  0.00812044  0.09544500    -0.17400
H2155       H  0.76155335  0.00757536  0.10726021     0.05100
H2156       H  0.76158308  0.00986144  0.05325739     0.05100
C2157       C  0.53928881  0.50916245  0.99960845     0.03100
C2158       C  0.53902181  0.50899016  0.01508039     0.03100
C2159       C  0.01147237  0.50946771  0.02238540    -0.17400
C2160       C  0.98397866  0.50960488  0.01481582     0.03100
C2161       C  0.98425247  0.50964920  0.99935063     0.03100
C2162       C  0.01216698  0.51002985  0.99204639    -0.17400
H2163       H  0.01267526  0.51082914  0.98023940     0.05100
H2164       H  0.01137090  0.50960997  0.03419198     0.05100
C2165       C  0.46415580  0.95570069  0.66731540     0.03100
C2166       C  0.45417536  0.94994922  0.68212609     0.03100
C2167       C  0.44897806  0.47441646  0.68970727    -0.17400
C2168       C  0.45361683  0.50478775  0.68289597     0.03100
C2169       C  0.46373660  0.51058474  0.66802461     0.03100
C2170       C  0.46853370  0.48581849  0.66043168    -0.17400
H2171       H  0.47636876  0.49034191  0.64909578     0.05100
H2172       H  0.44189159  0.47006298  0.70112644     0.05100
C2173       C  0.92080773  0.53769709  0.02830169    -0.01200
C2174       C  0.90190308  0.51244849  0.03902451     0.07400
C2175       C  0.91001507  0.98627503  0.04174358    -0.07100
C2176       C  0.93663184  0.98507735  0.03409638     0.04900
C2177       C  0.95572319  0.51035982  0.02335811    -0.14400
C2178       C  0.94764191  0.53670054  0.02071140    -0.07700
C2179       C  0.87337549  0.51253702  0.04748421     0.05800
C2180       C  0.83932185  0.98503870  0.04567107    -0.08800
C2181       C  0.81187140  0.98360479  0.05372550     0.00800
C2182       C  0.81818208  0.01020467  0.06378607     0.00700
C2183       C  0.85225379  0.53783099  0.06548780    -0.12400
C2184       C  0.87978563  0.53886832  0.05766290     0.01100
C2185       C  0.77757823  0.95413550  0.05173521     0.40400
C2186       C  0.91455269  0.56649507  0.06066013     0.37100
C2187       C  0.91247806  0.56427046  0.02462609     0.36800
C2188       C  0.94321779  0.95705423  0.03722994     0.37500
N2189       N  0.75004215  0.93058734  0.05015604    -0.43300
N2190       N  0.94244644  0.58852104  0.06312689    -0.43700
N2191       N  0.94870971  0.93473413  0.03973550    -0.41100
N2192       N  0.90571399  0.58551538  0.02168728    -0.42500
H2193       H  0.96224378  0.55648855  0.01263583     0.13700
H2194       H  0.89548568  0.96669963  0.04991438     0.10200
H2195       H  0.83423654  0.96449600  0.03799048     0.11200
H2196       H  0.85741800  0.55870806  0.07296274     0.17000
C2197       C  0.60030471  0.97913973  0.02950247    -0.01200
C2198       C  0.61953867  0.00460859  0.04011487     0.07400
C2199       C  0.61219092  0.53144296  0.04244897    -0.07100
C2200       C  0.58623222  0.53324130  0.03449426     0.04900
C2201       C  0.56672738  0.50769116  0.02391164    -0.14400
C2202       C  0.57394588  0.98062347  0.02166220    -0.07700
C2203       C  0.64837902  0.00477456  0.04850592     0.05800
C2204       C  0.68209207  0.53312204  0.04696696    -0.08800
C2205       C  0.70991529  0.53485546  0.05484930     0.00800
C2206       C  0.70447630  0.00749878  0.06430124     0.00700
C2207       C  0.67074601  0.97913437  0.06582428    -0.12400
C2208       C  0.64272026  0.97797130  0.05832817     0.01100
C2209       C  0.74356065  0.56557642  0.05346930     0.40400
C2210       C  0.60824052  0.94990611  0.06142759     0.37100
C2211       C  0.60810403  0.95208582  0.02606714     0.36800
C2212       C  0.58103905  0.56233698  0.03708613     0.37500
N2213       N  0.77049415  0.59027931  0.05242538    -0.43300
N2214       N  0.58058700  0.92756655  0.06402183    -0.43700
N2215       N  0.57695152  0.58568718  0.03923872    -0.41100
N2216       N  0.61450809  0.93049731  0.02333435    -0.42500
H2217       H  0.55921483  0.96080476  0.01361353     0.13700
H2218       H  0.62705809  0.55129526  0.05047330     0.10200
H2219       H  0.68660761  0.55417541  0.03966638     0.11200
H2220       H  0.66619077  0.95789073  0.07297340     0.17000
C2221       C  0.91386557  0.49335956  0.12191489    -0.01200
C2222       C  0.89447145  0.50959944  0.12543914     0.07400
C2223       C  0.89841710  0.02434920  0.13934424    -0.07100
C2224       C  0.92115471  0.02324507  0.14961697     0.04900
C2225       C  0.93967523  0.50599891  0.14623500    -0.14400
C2226       C  0.93577464  0.49129300  0.13233493    -0.07700
C2227       C  0.86901607  0.51034514  0.11504482     0.05800
C2228       C  0.84212550  0.97884623  0.10949325    -0.08800
C2229       C  0.81664609  0.97821295  0.10031308     0.00800
C2230       C  0.81768557  0.00943755  0.09654822     0.00700
C2231       C  0.84425939  0.54088965  0.10215260    -0.12400
C2232       C  0.87001594  0.54164886  0.11119325     0.01100
C2233       C  0.78879693  0.94516284  0.09537638     0.40400
C2234       C  0.89729722  0.57488324  0.11628475     0.37100
C2235       C  0.91254441  0.47947875  0.10756307     0.36800
C2236       C  0.92416717  0.03918812  0.16364524     0.37500
N2237       N  0.76630253  0.91870178  0.09147678    -0.43300
N2238       N  0.91911197  0.60148452  0.12042047    -0.43700
N2239       N  0.92668764  0.05211870  0.17486075    -0.41100
N2240       N  0.91164990  0.46840065  0.09606629    -0.42500
H2241       H  0.95037847  0.47859533  0.12949419     0.13700
H2242       H  0.88335481  0.03650248  0.14225673     0.10200
H2243       H  0.84055419  0.95457790  0.11263400     0.11200
H2244       H  0.84475815  0.56490934  0.09948181     0.17000
C2245       C  0.62632065  0.49221072  0.14033002    -0.01200
C2246       C  0.62861469  0.50478558  0.12598226     0.07400
C2247       C  0.60502867  0.01522471  0.12149128    -0.07100
C2248       C  0.57963034  0.01342754  0.13104583     0.04900
C2249       C  0.57719086  0.00040464  0.14530151    -0.14400
C2250       C  0.60048352  0.48969645  0.14974399    -0.07700
C2251       C  0.65456827  0.50583037  0.11545250     0.05800
C2252       C  0.65468731  0.97491430  0.11244971    -0.08800
C2253       C  0.67991217  0.97484386  0.10341933     0.00800
C2254       C  0.70511791  0.00596486  0.09686200     0.00700
C2255       C  0.70442749  0.53671572  0.09940408    -0.12400
C2256       C  0.67950002  0.53693201  0.10866947     0.01100
C2257       C  0.67929864  0.94246930  0.10095686     0.40400
C2258       C  0.68096543  0.56957792  0.11150211     0.37100
C2259       C  0.65086869  0.48274933  0.14582011     0.36800
C2260       C  0.55543067  0.02363203  0.12579228     0.37500
N2261       N  0.67858894  0.91644197  0.09890837    -0.43300
N2262       N  0.68215292  0.59576501  0.11374645    -0.43700
N2263       N  0.53588161  0.03163230  0.12162424    -0.41100
N2264       N  0.67056080  0.47520664  0.15023337    -0.42500
H2265       H  0.59905472  0.48017845  0.16075631     0.13700
H2266       H  0.60620698  0.02438954  0.11043666     0.10200
H2267       H  0.63526958  0.95080003  0.11737734     0.11200
H2268       H  0.72394641  0.56071391  0.09443521     0.17000
C2269       C  0.90111440  0.86330990  0.21170922    -0.01200
C2270       C  0.89196029  0.87421329  0.22454335     0.07400
C2271       C  0.90681719  0.90975178  0.22739435    -0.07100
C2272       C  0.93006613  0.93450326  0.21758638     0.04900
C2273       C  0.93905858  0.92377479  0.20456548    -0.14400
C2274       C  0.92479888  0.88805323  0.20192647    -0.07700
C2275       C  0.86556132  0.84913394  0.23479509     0.05800
C2276       C  0.87310116  0.82750885  0.24333935    -0.08800
C2277       C  0.84831825  0.80328084  0.25294322     0.00800
C2278       C  0.81551831  0.80065385  0.25407911     0.00700
C2279       C  0.80810322  0.82229927  0.24553969    -0.12400
C2280       C  0.83283755  0.84660086  0.23605153     0.01100
C2281       C  0.85638856  0.78025613  0.26095707     0.40400
C2282       C  0.82369174  0.86789614  0.22734290     0.37100
C2283       C  0.88506934  0.82696410  0.20800599     0.36800
C2284       C  0.94465504  0.97067393  0.22138569     0.37500
N2285       N  0.86274123  0.76167926  0.26735691    -0.43300
N2286       N  0.81645805  0.88503600  0.22036168    -0.43700
N2287       N  0.95631740  0.99962955  0.22447079    -0.41100
N2288       N  0.87191789  0.79781806  0.20502177    -0.42500
H2289       H  0.93129462  0.87941398  0.19198741     0.13700
H2290       H  0.89985588  0.91815966  0.23728693     0.10200
H2291       H  0.89821067  0.82931763  0.24236237     0.11200
H2292       H  0.78259945  0.81971557  0.24611393     0.17000
C2293       C  0.60784553  0.62680480  0.21408297    -0.01200
C2294       C  0.62491463  0.61713879  0.22444821     0.07400
C2295       C  0.61681956  0.58236394  0.22516369    -0.07100
C2296       C  0.59308670  0.55753199  0.21549306     0.04900
C2297       C  0.57633362  0.56727545  0.20491560    -0.14400
C2298       C  0.58371172  0.60191821  0.20452786    -0.07700
C2299       C  0.65213085  0.64292371  0.23431399     0.05800
C2300       C  0.64409867  0.66255428  0.24387714    -0.08800
C2301       C  0.66944987  0.68751094  0.25306376     0.00800
C2302       C  0.70312977  0.69201337  0.25324373     0.00700
C2303       C  0.71117447  0.67258344  0.24360202    -0.12400
C2304       C  0.68619541  0.64839454  0.23414022     0.01100
C2305       C  0.66104759  0.70992410  0.26132229     0.40400
C2306       C  0.69656941  0.63061046  0.22391835     0.37100
C2307       C  0.61556231  0.66230251  0.21262523     0.36800
C2308       C  0.58660524  0.52240395  0.21681709     0.37500
N2309       N  0.65438324  0.72818286  0.26776863    -0.43300
N2310       N  0.70486343  0.61640957  0.21569629    -0.43700
N2311       N  0.58164477  0.49434627  0.21794162    -0.41100
N2312       N  0.62162133  0.69071045  0.21142455    -0.42500
H2313       H  0.57114669  0.60986426  0.19650588     0.13700
H2314       H  0.62950354  0.57467803  0.23324405     0.10200
H2315       H  0.61813408  0.65888138  0.24393387     0.11200
H2316       H  0.73733014  0.67675262  0.24333490     0.17000
C2317       C  0.65490872  0.67329393  0.30356142    -0.01200
C2318       C  0.64745046  0.63850534  0.30287093     0.07400
C2319       C  0.66781886  0.63015698  0.29393832    -0.07100
C2320       C  0.69509000  0.65575422  0.28569083     0.04900
C2321       C  0.70210820  0.69041249  0.28617827    -0.14400
C2322       C  0.68215809  0.69885922  0.29531893    -0.07700
C2323       C  0.61813822  0.61038692  0.31114967     0.05800
C2324       C  0.58425427  0.60295725  0.30808420    -0.08800
C2325       C  0.55585070  0.57669769  0.31558802     0.00800
C2326       C  0.56103846  0.55695757  0.32635426     0.00700
C2327       C  0.59498674  0.56400048  0.32917045    -0.12400
C2328       C  0.62341744  0.59067453  0.32184206     0.01100
C2329       C  0.52181068  0.57118598  0.31223584     0.40400
C2330       C  0.65780922  0.59801554  0.32579130     0.37100
C2331       C  0.63542285  0.68350473  0.31286332     0.36800
C2332       C  0.71616007  0.64602493  0.27720429     0.37500
N2333       N  0.99456925  0.56680974  0.30946914    -0.43300
N2334       N  0.68537831  0.60398014  0.32899073    -0.43700
N2335       N  0.73302358  0.63818835  0.27039697    -0.41100
N2336       N  0.61979732  0.69171111  0.32030219    -0.42500
H2337       H  0.68778356  0.72555163  0.29592325     0.13700
H2338       H  0.66232444  0.60350586  0.29339907     0.10200
H2339       H  0.58001418  0.61785958  0.29979908     0.11200
H2340       H  0.59934213  0.54867116  0.33719197     0.17000
C2341       C  0.86181661  0.82456255  0.30356507    -0.01200
C2342       C  0.86483104  0.85777522  0.30332849     0.07400
C2343       C  0.84123372  0.86275230  0.29497199    -0.07100
C2344       C  0.81530068  0.83551847  0.28681532     0.04900
C2345       C  0.81298775  0.80270143  0.28672603    -0.14400
C2346       C  0.83592171  0.79737406  0.29535524    -0.07700
C2347       C  0.89313204  0.88788248  0.31125791     0.05800
C2348       C  0.92765906  0.89860597  0.30769939    -0.08800
C2349       C  0.95520098  0.92648164  0.31492100     0.00800
C2350       C  0.94851073  0.94457418  0.32595097     0.00700
C2351       C  0.91388578  0.93460744  0.32912169    -0.12400
C2352       C  0.88633084  0.90635289  0.32203539     0.01100
C2353       C  0.99004272  0.93501206  0.31117823     0.40400
C2354       C  0.85137115  0.89614942  0.32635791     0.37100
C2355       C  0.88474811  0.81765278  0.31225432     0.36800
C2356       C  0.79067279  0.84149410  0.27896415     0.37500
N2357       N  0.01798625  0.94192812  0.30816963    -0.43300
N2358       N  0.82337776  0.88802531  0.32984740    -0.43700
N2359       N  0.77076516  0.84611687  0.27271168    -0.41100
N2360       N  0.90320792  0.81213558  0.31916847    -0.42500
H2361       H  0.83374329  0.77196342  0.29556721     0.13700
H2362       H  0.84324226  0.88808462  0.29474368     0.10200
H2363       H  0.93311833  0.88488962  0.29928508     0.11200
H2364       H  0.90832826  0.94862703  0.33735199     0.17000
C2365       C  0.93806328  0.53868623  0.97273353    -0.01200
C2366       C  0.90306265  0.51211667  0.97408079     0.07400
C2367       C  0.89536358  0.98343146  0.98299527    -0.07100
C2368       C  0.92137970  0.98167023  0.99096439     0.04900
C2369       C  0.95591649  0.50943318  0.99046095    -0.14400
C2370       C  0.96392215  0.53739588  0.98103859    -0.07700
C2371       C  0.87409698  0.51345806  0.96631931     0.05800
C2372       C  0.85176639  0.98573448  0.95722333    -0.08800
C2373       C  0.82415700  0.98592633  0.94988908     0.00800
C2374       C  0.81884166  0.51454617  0.95133271     0.00700
C2375       C  0.83988610  0.54130303  0.96098584    -0.12400
C2376       C  0.86728320  0.54103613  0.96842519     0.01100
C2377       C  0.80082383  0.95602037  0.94132837     0.40400
C2378       C  0.88760148  0.56917672  0.97833888     0.37100
C2379       C  0.94828771  0.56694173  0.96255344     0.36800
C2380       C  0.91212574  0.95049002  0.99913032     0.37500
N2381       N  0.78181545  0.93212026  0.93450797    -0.43300
N2382       N  0.90399715  0.59196333  0.98617703    -0.43700
N2383       N  0.90448419  0.92524952  0.00554019    -0.41100
N2384       N  0.95645220  0.58956216  0.95438598    -0.42500
H2385       H  0.99052265  0.55833900  0.98018230     0.13700
H2386       H  0.86882745  0.96232343  0.98378399     0.10200
H2387       H  0.85592134  0.96386491  0.95584451     0.11200
H2388       H  0.83541160  0.56295898  0.96243037     0.17000
C2389       C  0.67314724  0.54301324  0.95624923    -0.01200
C2390       C  0.65163874  0.51432345  0.96518053     0.07400
C2391       C  0.65736596  0.98600231  0.96566705    -0.07100
C2392       C  0.68460251  0.98641353  0.95783025     0.04900
C2393       C  0.70714504  0.51580645  0.94946534    -0.14400
C2394       C  0.70110341  0.54391849  0.94883743    -0.07700
C2395       C  0.62321396  0.51330645  0.97416920     0.05800
C2396       C  0.58898347  0.98673479  0.97180048    -0.08800
C2397       C  0.56155260  0.98467840  0.98007111     0.00800
C2398       C  0.56804013  0.50967512  0.99097895     0.00700
C2399       C  0.60240481  0.53602184  0.99346551    -0.12400
C2400       C  0.62987573  0.53774668  0.98532999     0.01100
C2401       C  0.52703345  0.95624623  0.97731761     0.40400
C2402       C  0.66479063  0.56430583  0.98886922     0.37100
C2403       C  0.66643428  0.57133052  0.95417236     0.36800
C2404       C  0.68868259  0.95620354  0.95838766     0.37500
N2405       N  0.99932565  0.93357032  0.97508207    -0.43300
N2406       N  0.69284038  0.58556650  0.99162520    -0.43700
N2407       N  0.69195621  0.93198089  0.95880449    -0.41100
N2408       N  0.66093083  0.59392010  0.95243619    -0.42500
H2409       H  0.71841781  0.56680586  0.94262812     0.13700
H2410       H  0.64063170  0.96358034  0.97228714     0.10200
H2411       H  0.58367327  0.96754269  0.96341054     0.11200
H2412       H  0.60780668  0.55537754  0.00178522     0.17000
C2413       C  0.84088578  0.99210714  0.90068101    -0.01200
C2414       C  0.87608617  0.01706412  0.90291415     0.07400
C2415       C  0.88458958  0.54417480  0.91284259    -0.07100
C2416       C  0.85870103  0.54642823  0.92061253     0.04900
C2417       C  0.82361255  0.52053247  0.91885656    -0.14400
C2418       C  0.81515549  0.99383161  0.90872291    -0.07700
C2419       C  0.90387686  0.01713565  0.89391821     0.05800
C2420       C  0.92339250  0.54545287  0.88468084    -0.08800
C2421       C  0.94664521  0.54478262  0.87461554     0.00800
C2422       C  0.94987760  0.51479845  0.87338301     0.00700
C2423       C  0.93178581  0.98729476  0.88320629    -0.12400
C2424       C  0.90967590  0.98870026  0.89369310     0.01100
C2425       C  0.96553834  0.57461644  0.86528484     0.40400
C2426       C  0.89391158  0.96120252  0.90434352     0.37100
C2427       C  0.83033779  0.96551170  0.88967332     0.36800
C2428       C  0.86870638  0.57670490  0.92952358     0.37500
N2429       N  0.98078898  0.59867333  0.85789551    -0.43300
N2430       N  0.88161277  0.93941118  0.91299821    -0.43700
N2431       N  0.87707928  0.60126199  0.93653503    -0.41100
N2432       N  0.82190333  0.94428390  0.88081801    -0.42500
H2433       H  0.78822268  0.97431305  0.90703467     0.13700
H2434       H  0.91147347  0.56411115  0.91423492     0.10200
H2435       H  0.91959165  0.56771636  0.88500594     0.11200
H2436       H  0.93511314  0.96475750  0.88275341     0.17000
C2437       C  0.59789026  0.48754178  0.88859706    -0.01200
C2438       C  0.63360223  0.51121034  0.88680709     0.07400
C2439       C  0.64453359  0.03304663  0.87453353    -0.07100
C2440       C  0.62063648  0.03260962  0.86445557     0.04900
C2441       C  0.58482273  0.50953516  0.86645907    -0.14400
C2442       C  0.57405392  0.48684876  0.87846938    -0.07700
C2443       C  0.65998871  0.51351438  0.89748254     0.05800
C2444       C  0.66146214  0.98347858  0.90097961    -0.08800
C2445       C  0.68620930  0.98481173  0.91078673     0.00800
C2446       C  0.71092989  0.51683000  0.91688242     0.00700
C2447       C  0.71000055  0.54695566  0.91321143    -0.12400
C2448       C  0.68425292  0.54541507  0.90395312     0.01100
C2449       C  0.68603313  0.95307544  0.91433037     0.40400
C2450       C  0.68275628  0.57676104  0.90159507     0.37100
C2451       C  0.58477067  0.46426586  0.90091570     0.36800
C2452       C  0.63387164  0.05563623  0.85207693     0.37500
N2453       N  0.68577414  0.92759960  0.91721237    -0.43300
N2454       N  0.68147617  0.60185844  0.89976869    -0.43700
N2455       N  0.64482949  0.07417769  0.84218880    -0.41100
N2456       N  0.57414966  0.44538214  0.91070721    -0.42500
H2457       H  0.54669836  0.46885465  0.88017206     0.13700
H2458       H  0.67197974  0.05058323  0.87281102     0.10200
H2459       H  0.64337783  0.95892157  0.89595401     0.11200
H2460       H  0.72943316  0.57176155  0.91760387     0.17000
C2461       C  0.96037363  0.59310818  0.80251621    -0.01200
C2462       C  0.98262899  0.60896888  0.79050833     0.07400
C2463       C  0.51177712  0.60487848  0.78886333    -0.07100
C2464       C  0.51873852  0.58519142  0.79883101     0.04900
C2465       C  0.49595966  0.56871135  0.81058861    -0.14400
C2466       C  0.96683287  0.57271354  0.81221079    -0.07700
C2467       C  0.97746261  0.63194874  0.78021234     0.05800
C2468       C  0.50439933  0.66633625  0.77845618    -0.08800
C2469       C  0.50008664  0.68977679  0.76975447     0.00800
C2470       C  0.46798752  0.67921138  0.76286776     0.00700
C2471       C  0.94135804  0.64456384  0.76429355    -0.12400
C2472       C  0.94617444  0.62071284  0.77248875     0.01100
C2473       C  0.52913072  0.72442256  0.76795140     0.40400
C2474       C  0.91892386  0.58480964  0.77253257     0.37100
C2475       C  0.93163283  0.59854835  0.80556582     0.36800
C2476       C  0.54874824  0.58145417  0.79649650     0.37500
N2477       N  0.55248513  0.75214517  0.76648522    -0.43300
N2478       N  0.89703358  0.55606405  0.77253181    -0.43700
N2479       N  0.57280069  0.57843332  0.79464862    -0.41100
N2480       N  0.90850707  0.60275243  0.80800228    -0.42500
H2481       H  0.94944179  0.56051669  0.82133926     0.13700
H2482       H  0.52919942  0.61719809  0.77976271     0.10200
H2483       H  0.52877943  0.67507665  0.78409406     0.11200
H2484       H  0.91656294  0.63615292  0.75911071     0.17000
C2485       C  0.48886113  0.85110679  0.76665133    -0.01200
C2486       C  0.47332681  0.84612972  0.78051285     0.07400
C2487       C  0.95169627  0.81220028  0.78552279    -0.07100
C2488       C  0.94606779  0.78346994  0.77721386     0.04900
C2489       C  0.46262510  0.78825907  0.76353558    -0.14400
C2490       C  0.48412326  0.82236724  0.75848281    -0.07700
C2491       C  0.47960756  0.87554291  0.79024958     0.05800
C2492       C  0.95123307  0.87846152  0.79504625    -0.08800
C2493       C  0.95554790  0.90400985  0.80513399     0.00800
C2494       C  0.98887059  0.92727106  0.81067295     0.00700
C2495       C  0.51729877  0.92469222  0.80567078    -0.12400
C2496       C  0.51292756  0.89895949  0.79570775     0.01100
C2497       C  0.92551616  0.90633465  0.80927730     0.40400
C2498       C  0.54282249  0.89616008  0.79179605     0.37100
C2499       C  0.50909657  0.88535067  0.76044011     0.36800
C2500       C  0.92305130  0.74931938  0.78304603     0.37500
N2501       N  0.90152652  0.90835876  0.81258563    -0.43300
N2502       N  0.56680675  0.89398705  0.78863470    -0.43700
N2503       N  0.90498212  0.72194392  0.78778133    -0.41100
N2504       N  0.52525688  0.91278458  0.75543872    -0.42500
H2505       H  0.49737925  0.82666510  0.74814604     0.13700
H2506       H  0.93943709  0.80813971  0.79610513     0.10200
H2507       H  0.92554113  0.86054159  0.79092364     0.11200
H2508       H  0.54301606  0.94230573  0.80985367     0.17000
C2509       C  0.91754842  0.61115064  0.72178016    -0.01200
C2510       C  0.44833565  0.61360148  0.71622801     0.07400
C2511       C  0.47978881  0.64481060  0.71818082    -0.07100
C2512       C  0.48108569  0.67264349  0.72585998     0.04900
C2513       C  0.45039057  0.67008084  0.73135052    -0.14400
C2514       C  0.91875958  0.63951948  0.72902611    -0.07700
C2515       C  0.44843251  0.58427572  0.70825998     0.05800
C2516       C  0.92644902  0.56929198  0.69619887    -0.08800
C2517       C  0.92632959  0.54225315  0.68828055     0.00800
C2518       C  0.44991802  0.53088953  0.69184576     0.00700
C2519       C  0.47120221  0.54516077  0.70415761    -0.12400
C2520       C  0.47049192  0.57137635  0.71238796     0.01100
C2521       C  0.90058287  0.52556824  0.67703739     0.40400
C2522       C  0.49218015  0.58415003  0.72518807     0.37100
C2523       C  0.88461701  0.57944453  0.72070298     0.36800
C2524       C  0.51419982  0.70365318  0.72800507     0.37500
N2525       N  0.87953851  0.51216698  0.66816381    -0.43300
N2526       N  0.50948924  0.59452722  0.73545438    -0.43700
N2527       N  0.54070963  0.72850941  0.72977766    -0.41100
N2528       N  0.85821101  0.55403428  0.71983163    -0.42500
H2529       H  0.89511413  0.63747310  0.73329154     0.13700
H2530       H  0.50351354  0.64739052  0.71374698     0.10200
H2531       H  0.90916757  0.57867328  0.69296112     0.11200
H2532       H  0.48890961  0.53615654  0.70721256     0.17000
C2533       C  0.48171497  0.89476562  0.70320739    -0.01200
C2534       C  0.44973501  0.86426342  0.70606332     0.07400
C2535       C  0.91893891  0.86318924  0.70165866    -0.07100
C2536       C  0.91977146  0.89121096  0.69424458     0.04900
C2537       C  0.45182541  0.92003765  0.69028261    -0.14400
C2538       C  0.48252095  0.92163043  0.69492931    -0.07700
C2539       C  0.44780000  0.83394951  0.71406042     0.05800
C2540       C  0.92514301  0.81962793  0.72599634    -0.08800
C2541       C  0.92359330  0.79205184  0.73409121     0.00800
C2542       C  0.44631733  0.77949810  0.73078613     0.00700
C2543       C  0.46762326  0.79260293  0.71843882    -0.12400
C2544       C  0.46778900  0.81873556  0.70987224     0.01100
C2545       C  0.89785655  0.77645974  0.74541096     0.40400
C2546       C  0.48791718  0.82859735  0.69660459     0.37100
C2547       C  0.51386128  0.90024774  0.70941466     0.36800
C2548       C  0.88754750  0.89033704  0.69122099     0.37500
N2549       N  0.87704432  0.76383329  0.75441537    -0.43300
N2550       N  0.50415755  0.83651501  0.68601109    -0.43700
N2551       N  0.86175591  0.88987764  0.68897320    -0.41100
N2552       N  0.53964573  0.90475704  0.71441029    -0.42500
H2553       H  0.50717148  0.94458380  0.69251934     0.13700
H2554       H  0.89413127  0.84057325  0.70416636     0.10200
H2555       H  0.90864962  0.83006831  0.72904865     0.11200
H2556       H  0.48433786  0.78234691  0.71546675     0.17000
C2557       C  0.53772655  0.90190834  0.54727264    -0.01200
C2558       C  0.51311566  0.88631954  0.55849687     0.07400
C2559       C  0.98767393  0.89570404  0.56037850    -0.07100
C2560       C  0.98580196  0.91957254  0.55103326     0.04900
C2561       C  0.50989963  0.93462267  0.53948618    -0.14400
C2562       C  0.53604224  0.92595388  0.53792843    -0.07700
C2563       C  0.01257916  0.85924873  0.56810132     0.05800
C2564       C  0.53987880  0.86812473  0.57796090    -0.08800
C2565       C  0.53967594  0.84310788  0.58732659     0.00800
C2566       C  0.51168325  0.80879148  0.58693090     0.00700
C2567       C  0.98476823  0.79982988  0.57688938    -0.12400
C2568       C  0.98488675  0.82472287  0.56757308     0.01100
C2569       C  0.56870313  0.85283368  0.59696460     0.40400
C2570       C  0.95654815  0.81411173  0.55743333     0.37100
C2571       C  0.56405403  0.89260810  0.54479080     0.36800
C2572       C  0.95922936  0.92843406  0.55377978     0.37500
N2573       N  0.59195912  0.86040979  0.60467973    -0.43300
N2574       N  0.93378716  0.80555893  0.54933590    -0.43700
N2575       N  0.93794324  0.93551417  0.55602747    -0.41100
N2576       N  0.58513982  0.88513069  0.54279110    -0.42500
H2577       H  0.55469814  0.93728531  0.52915041     0.13700
H2578       H  0.96899786  0.88404086  0.56914225     0.10200
H2579       H  0.56129015  0.89460929  0.57833183     0.11200
H2580       H  0.96336397  0.77332112  0.57648540     0.17000
C2581       C  0.97269104  0.58149408  0.56031815    -0.01200
C2582       C  0.00126820  0.61542290  0.56198287     0.07400
C2583       C  0.53147617  0.62477065  0.55392479    -0.07100
C2584       C  0.53327543  0.60164868  0.54412295     0.04900
C2585       C  0.50359989  0.56897653  0.54143920    -0.14400
C2586       C  0.97364996  0.55914729  0.54976716    -0.07700
C2587       C  0.00087322  0.64164376  0.57208179     0.05800
C2588       C  0.52951021  0.66078751  0.58128572    -0.08800
C2589       C  0.53237930  0.68844933  0.58964039     0.00800
C2590       C  0.50462830  0.69516720  0.59010999     0.00700
C2591       C  0.97587725  0.67597789  0.58105127    -0.12400
C2592       C  0.97449493  0.65054497  0.57162846     0.01100
C2593       C  0.56537782  0.71156373  0.59629206     0.40400
C2594       C  0.94770423  0.63676532  0.56064277     0.37100
C2595       C  0.94276242  0.56841098  0.56970457     0.36800
C2596       C  0.56611703  0.61234392  0.53714047     0.37500
N2597       N  0.59214148  0.73014298  0.60139789    -0.43300
N2598       N  0.92641619  0.62606901  0.55175906    -0.43700
N2599       N  0.59274824  0.62092671  0.53183465    -0.41100
N2600       N  0.91881384  0.55795500  0.57724529    -0.42500
H2601       H  0.95121635  0.53355184  0.54830967     0.13700
H2602       H  0.55393625  0.65039388  0.55527710     0.10200
H2603       H  0.55068177  0.65534742  0.58135108     0.11200
H2604       H  0.95541810  0.68246038  0.58069324     0.17000
C2605       C  0.95325279  0.56789095  0.64029881    -0.01200
C2606       C  0.47835414  0.60160466  0.64491752     0.07400
C2607       C  0.49905005  0.60498391  0.65707623    -0.07100
C2608       C  0.49587157  0.57580941  0.66428897     0.04900
C2609       C  0.46979273  0.54232884  0.66009243    -0.14400
C2610       C  0.94905204  0.53874833  0.64795952    -0.07700
C2611       C  0.48422942  0.63362265  0.63711103     0.05800
C2612       C  0.95607500  0.63882299  0.63424606    -0.08800
C2613       C  0.96082204  0.66828816  0.62664298     0.00800
C2614       C  0.49433548  0.69377943  0.62230979     0.00700
C2615       C  0.52259642  0.68996476  0.62616352    -0.12400
C2616       C  0.51782417  0.65966033  0.63284760     0.01100
C2617       C  0.93109554  0.67192868  0.62337421     0.40400
C2618       C  0.54772258  0.65535694  0.63443384     0.37100
C2619       C  0.93217523  0.56223607  0.62750912     0.36800
C2620       C  0.52105493  0.58090703  0.67533636     0.37500
N2621       N  0.90740542  0.67508837  0.62075158    -0.43300
N2622       N  0.57176681  0.65201913  0.63558432    -0.43700
N2623       N  0.54161759  0.58519558  0.68404521    -0.41100
N2624       N  0.91514618  0.55746881  0.61728591    -0.42500
H2625       H  0.92942261  0.51301155  0.64448925     0.13700
H2626       H  0.51836224  0.63059205  0.66079599     0.10200
H2627       H  0.93030267  0.61971759  0.63783531     0.11200
H2628       H  0.54852105  0.71050133  0.62366372     0.17000
C2629       C  0.51264187  0.91802928  0.64733893    -0.01200
C2630       C  0.48538767  0.88562520  0.64245686     0.07400
C2631       C  0.95113917  0.87657777  0.64587492    -0.07100
C2632       C  0.94374022  0.89916169  0.65369171     0.04900
C2633       C  0.47092792  0.93106553  0.65885864    -0.14400
C2634       C  0.50523316  0.94025463  0.65552688    -0.07700
C2635       C  0.49171475  0.86050535  0.63397586     0.05800
C2636       C  0.51437801  0.84990199  0.63954772    -0.08800
C2637       C  0.51973146  0.82524890  0.63224228     0.00800
C2638       C  0.50079836  0.80907815  0.61944358     0.00700
C2639       C  0.97787595  0.81947063  0.61397859    -0.12400
C2640       C  0.97418554  0.84566780  0.62076700     0.01100
C2641       C  0.54542518  0.81763834  0.63795697     0.40400
C2642       C  0.95294477  0.85746248  0.61368890     0.37100
C2643       C  0.54829468  0.92950044  0.64372719     0.36800
C2644       C  0.90795160  0.88965927  0.65556984     0.37500
N2645       N  0.56609018  0.81160725  0.64250411    -0.43300
N2646       N  0.93608307  0.86698478  0.60793001    -0.43700
N2647       N  0.87908087  0.88176290  0.65672894    -0.41100
N2648       N  0.57681528  0.93846888  0.64081849    -0.42500
H2649       H  0.52626331  0.96500998  0.65924934     0.13700
H2650       H  0.92993565  0.85177610  0.64229466     0.10200
H2651       H  0.52791515  0.86083025  0.64969850     0.11200
H2652       H  0.96257635  0.80703205  0.60437475     0.17000
C2653       C  0.67845000  0.64369724  0.44480836    -0.01200
C2654       C  0.64999662  0.64577674  0.45058999     0.07400
C2655       C  0.64683804  0.67489179  0.44701501    -0.07100
C2656       C  0.67108997  0.70136757  0.43808601     0.04900
C2657       C  0.69810512  0.69819439  0.43174816    -0.14400
C2658       C  0.70155864  0.66934660  0.43516832    -0.07700
C2659       C  0.62408170  0.61934526  0.46088738     0.05800
C2660       C  0.61470933  0.63102450  0.47341378    -0.08800
C2661       C  0.58875849  0.60773517  0.48282774     0.00800
C2662       C  0.57393747  0.57170888  0.48066562     0.00700
C2663       C  0.58309080  0.55977128  0.46824488    -0.12400
C2664       C  0.60650679  0.58321864  0.45800314     0.01100
C2665       C  0.57691349  0.62152908  0.49427144     0.40400
C2666       C  0.60942167  0.56968212  0.44411721     0.37100
C2667       C  0.68599585  0.61694943  0.44917311     0.36800
C2668       C  0.66794983  0.73176440  0.43560925     0.37500
N2669       N  0.56670037  0.63267255  0.50311698    -0.43300
N2670       N  0.61145967  0.55885784  0.43292973    -0.43700
N2671       N  0.66564028  0.75621632  0.43355972    -0.41100
N2672       N  0.69230849  0.59560242  0.45252039    -0.42500
H2673       H  0.72321952  0.66762567  0.43074050     0.13700
H2674       H  0.62550903  0.67726579  0.45137568     0.10200
H2675       H  0.62697297  0.65860707  0.47565045     0.11200
H2676       H  0.57042925  0.53210093  0.46613615     0.17000
C2677       C  0.91812907  0.89725132  0.45936044    -0.01200
C2678       C  0.88356299  0.89008905  0.45890267     0.07400
C2679       C  0.87242349  0.90593970  0.46909373    -0.07100
C2680       C  0.89508849  0.92841820  0.47977047     0.04900
C2681       C  0.92979881  0.93557666  0.48027427    -0.14400
C2682       C  0.94079732  0.91973426  0.46995510    -0.07700
C2683       C  0.85790818  0.86338592  0.44887671     0.05800
C2684       C  0.84987103  0.82891701  0.45083729    -0.08800
C2685       C  0.82502025  0.80230800  0.44218133     0.00800
C2686       C  0.80774876  0.80995559  0.43110304     0.00700
C2687       C  0.81611487  0.84464936  0.42899543    -0.12400
C2688       C  0.84082853  0.87129877  0.43785417     0.01100
C2689       C  0.81727099  0.76723889  0.44515763     0.40400
C2690       C  0.84801879  0.90642209  0.43558458     0.37100
C2691       C  0.93093900  0.88187846  0.44900889     0.36800
C2692       C  0.88149962  0.94241664  0.49039176     0.37500
N2693       N  0.81068285  0.73911321  0.44774889    -0.43300
N2694       N  0.85370502  0.93459011  0.43388293    -0.43700
N2695       N  0.87051174  0.95347020  0.49894438    -0.41100
N2696       N  0.94109471  0.86948705  0.44070802    -0.42500
H2697       H  0.96730257  0.92493321  0.47011179     0.13700
H2698       H  0.84563495  0.89987376  0.46897492     0.10200
H2699       H  0.86267026  0.82269264  0.45941050     0.11200
H2700       H  0.80267388  0.85077557  0.42068939     0.17000
C2701       C  0.63478327  0.65852237  0.39430436    -0.01200
C2702       C  0.64158296  0.63903364  0.38405747     0.07400
C2703       C  0.67611780  0.64760445  0.38163238    -0.07100
C2704       C  0.70350373  0.67488588  0.38926000     0.04900
C2705       C  0.69677002  0.69517421  0.39912628    -0.14400
C2706       C  0.66225408  0.68685122  0.40134114    -0.07700
C2707       C  0.61312802  0.61017846  0.37559163     0.05800
C2708       C  0.59081676  0.61700757  0.36716005    -0.08800
C2709       C  0.56372043  0.59064700  0.35909223     0.00800
C2710       C  0.55924248  0.55691484  0.35897030     0.00700
C2711       C  0.58119327  0.54991961  0.36751827    -0.12400
C2712       C  0.60781812  0.57608246  0.37584365     0.01100
C2713       C  0.53991796  0.59841991  0.35157535     0.40400
C2714       C  0.62849434  0.56698664  0.38496942     0.37100
C2715       C  0.59978877  0.64904718  0.39827403     0.36800
C2716       C  0.73814080  0.68080771  0.38713764     0.37500
N2717       N  0.52064124  0.60462030  0.34570410    -0.43300
N2718       N  0.64499951  0.55969726  0.39233231    -0.43700
N2719       N  0.76593597  0.68556127  0.38552628    -0.41100
N2720       N  0.57174019  0.64119384  0.40155631    -0.42500
H2721       H  0.65661761  0.70242537  0.40864277     0.13700
H2722       H  0.68168311  0.63276517  0.37382159     0.10200
H2723       H  0.59441815  0.64299603  0.36698096     0.11200
H2724       H  0.57747587  0.52388355  0.36766777     0.17000
C2725       C  0.90390120  0.92459706  0.37671460    -0.01200
C2726       C  0.89610870  0.88982756  0.37521118     0.07400
C2727       C  0.91618971  0.88229355  0.36572622    -0.07100
C2728       C  0.94333255  0.90864582  0.35766320     0.04900
C2729       C  0.95022423  0.94324624  0.35874544    -0.14400
C2730       C  0.93060336  0.95083312  0.36847705    -0.07700
C2731       C  0.86659942  0.86101425  0.38318560     0.05800
C2732       C  0.83298233  0.85525142  0.38081794    -0.08800
C2733       C  0.80457228  0.82926991  0.38841785     0.00800
C2734       C  0.80936247  0.80784085  0.39839588     0.00700
C2735       C  0.84290015  0.81316059  0.40057118    -0.12400
C2736       C  0.87145245  0.83968799  0.39320634     0.01100
C2737       C  0.77107925  0.82628033  0.38631824     0.40400
C2738       C  0.90559996  0.84556663  0.39663444     0.37100
C2739       C  0.88533779  0.93405261  0.38690376     0.36800
C2740       C  0.96416756  0.89955239  0.34867914     0.39600
N2741       N  0.74433028  0.82414842  0.38467009    -0.43300
N2742       N  0.93297221  0.85037693  0.39946077    -0.43700
N2743       N  0.48070372  0.89191154  0.34154019    -0.41100
N2744       N  0.87040953  0.94145864  0.39511424    -0.42500
H2745       H  0.93605267  0.97738758  0.36956280     0.13700
H2746       H  0.91055482  0.85569020  0.36459381     0.10200
H2747       H  0.82902787  0.87154789  0.37315666     0.11200
H2748       H  0.84684281  0.79693936  0.40827419     0.17000
loop_ 
_geom_bond_atom_site_label_1 
_geom_bond_atom_site_label_2 
_geom_bond_distance 
_geom_bond_site_symmetry_2 
_ccdc_geom_bond_type 
C1            C2   1.417       .  A
C1            C6   1.411       .  A
C1          C673   1.491       .  S
C2            C3   1.402       .  A
C2          C625   1.492       .  S
C3            C4   1.398       .  A
C3            H8   1.084       .  S
C4            C5   1.414       .  A
C4          C596   1.482       .  S
C5            C6   1.411       .  A
C5          C644   1.496       .  S
C6            H7   1.084       .  S
C9           C10   1.419       .  A
C9           C14   1.400       .  A
C9          C505   1.480       .  S
C10          C11   1.410   1_455  A
C10         C577   1.501       .  S
C11          C12   1.405   1_655  A
C11          H16   1.083       .  S
C12          C13   1.413       .  A
C12         C553   1.481   1_455  S
C13          C14   1.397       .  A
C13         C529   1.486       .  S
C14          H15   1.085       .  S
In17         O24   2.254       .  S
In17        O706   2.225   1_545  S
In17       O2081   2.255   1_545  S
In17        O715   2.230   1_545  S
In17        O709   2.258   1_545  S
In17       O1399   2.250       .  S
In17       O1400   2.232       .  S
In17       O1403   2.242       .  S
C18         C524   1.486       .  S
C18          O26   1.261       .  A
C18        O1398   1.266   1_455  A
O19        In704   2.225       .  S
O19        C1401   1.259       .  A
O20       In2078   2.255       .  S
O20          C27   1.264       .  A
C21         C620   1.487       .  S
C21          O28   1.260       .  A
C21          O22   1.264       .  A
O22        In704   2.258       .  S
C23         C601   1.478       .  S
C23          O25   1.264       .  A
C23          O29   1.262       .  A
O24        C1392   1.266       .  A
O25       In1391   2.250       .  S
O26       In1391   2.232       .  S
C27         C500   1.482       .  S
C27        O1393   1.259   1_455  A
O28        In704   2.230       .  S
O29       In1391   2.242       .  S
C30          C31   1.425       .  A
C30          C35   1.410       .  A
C30         C481   1.494       .  S
C31          C32   1.407       .  A
C31         C428   1.499       .  S
C32          C33   1.402       .  A
C32        H1411   1.084       .  S
C33          C34   1.410       .  A
C33         C409   1.490       .  S
C34          C35   1.402       .  A
C34         C452   1.484       .  S
C35          H36   1.085       .  S
H37        C1406   1.084       .  S
In38         O43   2.245       .  S
In38         O45   2.250       .  S
In38        O727   2.220       .  S
In38       O2102   2.255       .  S
In38        O736   2.234       .  S
In38       O2107   2.257       .  S
In38       O1421   2.235       .  S
In38       O1424   2.222       .  S
C39         C433   1.484       .  S
C39          O45   1.264       .  A
C39        O1421   1.261       .  A
O40        In725   2.220       .  S
O40        C1422   1.260       .  A
O41       In2099   2.255       .  S
O41          C48   1.267       .  A
C42         C361   1.482       .  S
C42          O49   1.263       .  A
C42         O730   1.266   1_545  A
O43         C729   1.266       .  A
C44         C380   1.486       .  S
C44          O46   1.266       .  A
C44         O737   1.261   1_545  A
O46       In2099   2.257       .  S
O47       In1412   2.235       .  S
O47        C1413   1.261   1_455  A
C48         C404   1.478   1_455  S
C48        O1414   1.260   1_455  A
O49        In725   2.234       .  S
O50       In1412   2.222       .  S
O50         C731   1.261       .  A
C51          C52   1.414       .  A
C51          C56   1.401       .  A
C51         C385   1.484       .  S
C52          C53   1.410       .  A
C52         C332   1.493       .  S
C53          C54   1.409       .  A
C53          H58   1.084       .  S
C54          C55   1.417       .  A
C54         C313   1.493       .  S
C55          C56   1.404       .  A
C55         C356   1.490       .  S
C56          H57   1.084       .  S
C59          C60   1.413       .  A
C59          C64   1.404       .  A
C59         C284   1.485       .  S
C60          C61   1.399       .  A
C60         C217   1.481       .  S
C61          C62   1.400       .  A
C61          H66   1.085       .  S
C62          C63   1.417       .  A
C62         C241   1.486       .  S
C63          C64   1.407       .  A
C63         C260   1.487       .  S
C64          H65   1.084       .  S
C67          C68   1.420       .  A
C67          C72   1.404       .  A
C67         C668   1.492       .  S
C68          C69   1.409       .  A
C68         C289   1.497       .  S
C69        C2131   1.407       .  A
C69          H74   1.084       .  S
C70          C71   1.417       .  A
C70        C2130   1.407       .  A
C70         C265   1.495       .  S
C71        C2133   1.402       .  A
C71         C649   1.489       .  S
C72        C2132   1.402       .  A
C72          H73   1.085       .  S
In75         O80   2.244   1_565  S
In75        O764   2.225       .  S
In75        O765   2.268       .  S
In75        O773   2.239       .  S
In75       O1456   2.246   1_565  S
In75       O2144   2.248       .  S
In75       O1458   2.235   1_565  S
In75       O1461   2.231   1_565  S
C76         C236   1.485       .  S
C76          O82   1.264       .  A
C76          O84   1.260       .  A
O77        In762   2.225       .  S
O77          C85   1.258       .  A
O78        In762   2.268       .  S
O78          C85   1.265       .  A
C79         C164   1.483       .  S
C79          O80   1.263       .  A
C79         O773   1.262   1_545  A
C81         C188   1.476       .  S
C81          O83   1.265       .  A
C81         O774   1.261       .  A
O82       In1449   2.246   1_545  S
O83       In2136   2.248       .  S
O84       In1449   2.235   1_545  S
C85         C212   1.486       .  S
O86        In762   2.239       .  S
O86         C766   1.262       .  A
O87       In1449   2.231   1_545  S
O87         C768   1.261   1_545  A
C88          C89   1.414       .  A
C88          C93   1.402       .  A
C88         C193   1.483       .  S
C89          C90   1.408       .  A
C89         C145   1.494       .  S
C90          C91   1.410       .  A
C90          H95   1.084       .  S
C91          C92   1.416       .  A
C91         C121   1.495       .  S
C92          C93   1.402       .  A
C92         C169   1.485       .  S
C93          H94   1.085       .  S
C96          C97   1.420   1_556  A
C96        C1475   1.410       .  A
C96         C337   1.497       .  S
C97        C1472   1.409       .  A
C97         C140   1.501       .  S
C98          C99   1.410       .  A
C98        C1471   1.409       .  A
C98         H103   1.084       .  S
C99         C100   1.420   1_554  A
C99         C116   1.498       .  S
C100        C101   1.406       .  A
C100        C308   1.499       .  S
C101       C1470   1.410       .  A
C101        H102   1.084       .  S
C104        C105   1.414       .  A
C104        C796   1.403       .  A
C104        C572   1.492       .  S
C105        C793   1.405       .  A
C105        C476   1.483       .  S
C106        C107   1.406   1_565  A
C106        C792   1.405       .  A
C106        H111   1.084       .  S
C107        C108   1.421       .  A
C107        C457   1.497       .  S
C108        C109   1.407   1_545  A
C108        C548   1.487       .  S
C109        C791   1.403       .  A
C109        H110   1.084       .  S
C112        C113   1.412       .  A
C112        C117   1.404       .  A
C112        C126   1.444       .  S
C113        C801   1.402   1_545  A
C113        C118   1.492       .  S
C114        C115   1.402       .  A
C114        C800   1.402       .  A
C114        H133   1.085       .  S
C115        C803   1.416       .  A
C115        C127   1.444       .  S
C116        C117   1.407       .  A
C116        C802   1.416   1_545  A
C117        H132   1.084       .  S
C118        C123   1.412       .  A
C118        C806   1.404   1_545  A
C119        C120   1.404       .  A
C119        C805   1.404       .  A
C119        H134   1.085       .  S
C120        C121   1.414       .  A
C120        C124   1.444       .  S
C121        C809   1.405       .  A
C122        C123   1.403       .  A
C122        C808   1.405       .  A
C122        H135   1.083       .  S
C123        C125   1.443       .  S
C124        N128   1.157       .  T
C125        N129   1.157       .  T
C126        N131   1.157       .  T
C127        N130   1.157       .  T
C136        C137   1.413       .  A
C136        C141   1.406       .  A
C136        C150   1.444       .  S
C137        C825   1.403       .  A
C137        C142   1.494       .  S
C138        C139   1.403       .  A
C138        C824   1.403       .  A
C138        H157   1.085       .  S
C139        C140   1.415       .  A
C139        C151   1.443       .  S
C140        C828   1.408   1_545  A
C141        C827   1.408       .  A
C141        H156   1.084       .  S
C142        C147   1.412       .  A
C142        C830   1.405       .  A
C143        C144   1.403       .  A
C143        C829   1.405       .  A
C143        H158   1.085       .  S
C144        C832   1.412       .  A
C144        C148   1.444       .  S
C145        C146   1.406       .  A
C145        C831   1.412       .  A
C146        C147   1.403       .  A
C146        H159   1.082       .  S
C147        C149   1.443       .  S
C148        N152   1.157       .  T
C149        N153   1.157       .  T
C150        N155   1.157       .  T
C151        N154   1.157       .  T
C160        C161   1.413   1_565  A
C160        C165   1.401       .  A
C160        C174   1.444       .  S
C161        C849   1.406       .  A
C161        C166   1.494       .  S
C162        C163   1.402       .  A
C162        C848   1.406       .  A
C162        H181   1.085       .  S
C163        C851   1.413       .  A
C163        C175   1.444       .  S
C164        C165   1.405   1_545  A
C164        C850   1.413       .  A
C165        H180   1.085       .  S
C166        C171   1.414       .  A
C166        C854   1.407   1_545  A
C167        C168   1.402       .  A
C167        C853   1.407       .  A
C167        H182   1.084       .  S
C168        C169   1.408       .  A
C168        C172   1.443       .  S
C169        C857   1.403       .  A
C170        C171   1.402       .  A
C170        C856   1.403       .  A
C170        H183   1.085       .  S
C171        C173   1.444       .  S
C172        N176   1.157       .  T
C173        N177   1.157       .  T
C174        N179   1.157       .  T
C175        N178   1.157       .  T
C184        C185   1.414   1_565  A
C184        C189   1.399       .  A
C184        C198   1.444       .  S
C185        C873   1.405       .  A
C185        C190   1.491       .  S
C186        C187   1.403       .  A
C186        C872   1.405       .  A
C186        H205   1.085       .  S
C187        C188   1.413       .  A
C187        C199   1.445       .  S
C188        C876   1.400       .  A
C189        C875   1.400   1_565  A
C189        H204   1.085       .  S
C190        C195   1.414       .  A
C190        C878   1.405   1_545  A
C191        C192   1.399       .  A
C191        C877   1.405       .  A
C191        H206   1.084       .  S
C192        C193   1.409       .  A
C192        C196   1.444       .  S
C193        C881   1.403       .  A
C194        C195   1.404       .  A
C194        C880   1.403       .  A
C194        H207   1.084       .  S
C195        C197   1.444       .  S
C196        N200   1.157       .  T
C197        N201   1.157       .  T
C198        N203   1.157       .  T
C199        N202   1.158       .  T
C208        C209   1.410       .  A
C208        C213   1.404       .  A
C208        C222   1.444       .  S
C209        C210   1.399       .  A
C209        C214   1.484       .  S
C210        C211   1.399       .  A
C210        H229   1.085       .  S
C211        C212   1.418       .  A
C211        C223   1.444       .  S
C212        C213   1.406       .  A
C213        H228   1.084       .  S
C214        C215   1.405       .  A
C214        C219   1.410       .  A
C215        C216   1.403       .  A
C215        H230   1.085       .  S
C216        C217   1.411       .  A
C216        C220   1.443       .  S
C217        C218   1.402       .  A
C218        C219   1.397       .  A
C218        H231   1.085       .  S
C219        C221   1.444       .  S
C220        N224   1.157       .  T
C221        N225   1.157       .  T
C222        N227   1.157       .  T
C223        N226   1.157       .  T
C232        C233   1.411       .  A
C232        C237   1.400       .  A
C232        C246   1.444       .  S
C233        C234   1.403       .  A
C233        C238   1.489       .  S
C234        C235   1.400       .  A
C234        H253   1.085       .  S
C235        C236   1.417       .  A
C235        C247   1.444       .  S
C236        C237   1.405       .  A
C237        H252   1.085       .  S
C238        C239   1.405       .  A
C238        C243   1.412       .  A
C239        C240   1.402       .  A
C239        H254   1.085       .  S
C240        C241   1.411       .  A
C240        C244   1.443       .  S
C241        C242   1.403       .  A
C242        C243   1.398       .  A
C242        H255   1.085       .  S
C243        C245   1.444       .  S
C244        N248   1.157       .  T
C245        N249   1.157       .  T
C246        N251   1.157       .  T
C247        N250   1.157   1_545  T
C256        C257   1.412       .  A
C256        C261   1.400       .  A
C256        C270   1.444       .  S
C257        C258   1.404       .  A
C257        C262   1.489       .  S
C258        C259   1.401       .  A
C258        H277   1.085       .  S
C259        C260   1.412       .  A
C259        C271   1.443       .  S
C260        C261   1.404       .  A
C261        H276   1.085       .  S
C262        C263   1.403       .  A
C262        C267   1.411       .  A
C263        C264   1.401       .  A
C263        H278   1.085       .  S
C264        C265   1.414       .  A
C264        C268   1.443       .  S
C265        C266   1.407       .  A
C266        C267   1.401       .  A
C266        H279   1.084       .  S
C267        C269   1.444       .  S
C268       N1646   1.157   1_455  T
C269        N273   1.157       .  T
C270        N275   1.157       .  T
C271        N274   1.157       .  T
N272       C1642   1.157       .  T
C280        C281   1.414       .  A
C280        C285   1.403       .  A
C280        C294   1.444       .  S
C281        C282   1.405       .  A
C281        C286   1.492       .  S
C282        C283   1.401       .  A
C282        H301   1.084       .  S
C283        C284   1.410       .  A
C283        C295   1.443       .  S
C284        C285   1.403       .  A
C285        H300   1.085       .  S
C286        C287   1.403       .  A
C286        C291   1.413       .  A
C287        C288   1.401       .  A
C287        H302   1.085       .  S
C288        C289   1.415       .  A
C288        C292   1.444       .  S
C289        C290   1.407       .  A
C290        C291   1.403       .  A
C290        H303   1.084       .  S
C291        C293   1.444       .  S
C292        N296   1.157       .  T
C293        N297   1.157       .  T
C294        N299   1.157       .  T
C295        N298   1.157       .  T
C304        C305   1.415       .  A
C304        C309   1.406       .  A
C304        C318   1.444       .  S
C305        C993   1.406   1_545  A
C305        C310   1.500       .  S
C306        C307   1.405       .  A
C306        C992   1.406       .  A
C306        H325   1.084       .  S
C307        C995   1.413       .  A
C307        C319   1.443       .  S
C308        C309   1.406       .  A
C308        C994   1.413   1_545  A
C309        H324   1.084       .  S
C310        C315   1.416       .  A
C310        C998   1.408   1_545  A
C311        C312   1.405       .  A
C311        C997   1.408       .  A
C311        H326   1.084       .  S
C312       C1000   1.412       .  A
C312        C316   1.444       .  S
C313        C314   1.402       .  A
C313        C999   1.412   1_545  A
C314        C315   1.403       .  A
C314        H327   1.084       .  S
C315        C317   1.443       .  S
C316        N320   1.157       .  T
C317        N321   1.157       .  T
C318        N323   1.157       .  T
C319        N322   1.157   1_556  T
C328        C329   1.413       .  A
C328        C333   1.403       .  A
C328        C342   1.444       .  S
C329       C1017   1.405   1_545  A
C329        C334   1.494       .  S
C330        C331   1.404       .  A
C330       C1016   1.405       .  A
C330        H349   1.085       .  S
C331       C1019   1.412       .  A
C331        C343   1.443       .  S
C332        C333   1.405       .  A
C332       C1018   1.412   1_545  A
C333        H348   1.082       .  S
C334        C339   1.413       .  A
C334       C1022   1.403   1_545  A
C335        C336   1.403       .  A
C335       C1021   1.403       .  A
C335        H350   1.085       .  S
C336       C1024   1.415       .  A
C336        C340   1.444       .  S
C337        C338   1.406       .  A
C337       C1023   1.415   1_545  A
C338        C339   1.404       .  A
C338        H351   1.084   1_556  S
C339        C341   1.444       .  S
C340       N1718   1.157   1_455  T
C341        N345   1.157       .  T
C342        N347   1.157       .  T
C343        N346   1.157       .  T
N344       C1714   1.157       .  T
C352        C353   1.412       .  A
C352        C357   1.398       .  A
C352        C366   1.444       .  S
C353       C1041   1.404       .  A
C353        C358   1.488       .  S
C354        C355   1.402       .  A
C354       C1040   1.404       .  A
C354        H373   1.085       .  S
C355        C356   1.413       .  A
C355        C367   1.443       .  S
C356       C1044   1.404   1_545  A
C357       C1043   1.404       .  A
C357        H372   1.085       .  S
C358        C363   1.411       .  A
C358       C1046   1.402       .  A
C359        C360   1.400       .  A
C359       C1045   1.402       .  A
C359        H374   1.085       .  S
C360        C361   1.415       .  A
C360        C364   1.444       .  S
C361       C1049   1.405   1_545  A
C362        C363   1.402       .  A
C362       C1048   1.405       .  A
C362        H375   1.084       .  S
C363        C365   1.444       .  S
C364        N368   1.157       .  T
C365        N369   1.157       .  T
C366        N371   1.157       .  T
C367        N370   1.157       .  T
C376        C377   1.412   1_565  A
C376        C381   1.399       .  A
C376        C390   1.444       .  S
C377       C1065   1.406       .  A
C377        C382   1.493       .  S
C378        C379   1.403       .  A
C378       C1064   1.406       .  A
C378        H397   1.085       .  S
C379       C1067   1.414       .  A
C379        C391   1.443       .  S
C380        C381   1.407   1_545  A
C380       C1066   1.414       .  A
C381        H396   1.085       .  S
C382        C387   1.415       .  A
C382       C1070   1.406   1_545  A
C383        C384   1.401       .  A
C383       C1069   1.406       .  A
C383        H398   1.084       .  S
C384       C1072   1.409       .  A
C384        C388   1.444       .  S
C385        C386   1.401       .  A
C385       C1071   1.409   1_545  A
C386        C387   1.401       .  A
C386        H399   1.084       .  S
C387        C389   1.444       .  S
C388        N392   1.157       .  T
C389        N393   1.157       .  T
C390        N395   1.157       .  T
C391        N394   1.157       .  T
C400        C401   1.414       .  A
C400        C405   1.398       .  A
C400        C414   1.445       .  S
C401       C1776   1.407       .  A
C401        C406   1.491       .  S
C402        C403   1.403       .  A
C402       C1775   1.407   1_455  A
C402        H421   1.085       .  S
C403        C404   1.411   1_455  A
C403        C415   1.444       .  S
C404       C1779   1.403       .  A
C405       C1778   1.403       .  A
C405        H420   1.085       .  S
C406        C411   1.414       .  A
C406       C1781   1.404       .  A
C407        C408   1.400       .  A
C407       C1780   1.404   1_455  A
C407        H422   1.085       .  S
C408        C409   1.412   1_455  A
C408        C412   1.443       .  S
C409       C1784   1.404       .  A
C410        C411   1.401       .  A
C410       C1783   1.404       .  A
C410        H423   1.083       .  S
C411        C413   1.444       .  S
C412        N416   1.157       .  T
C413        N417   1.157       .  T
C414        N419   1.157       .  T
C415        N418   1.157       .  T
C424        C425   1.413       .  A
C424        C429   1.404       .  A
C424        C438   1.444   1_655  S
C425       C1800   1.401       .  A
C425        C430   1.491       .  S
C426        C427   1.399       .  A
C426       C1799   1.401       .  A
C426        H445   1.085       .  S
C427       C1802   1.418       .  A
C427        C439   1.445       .  S
C428        C429   1.407       .  A
C428       C1801   1.418       .  A
C429        H444   1.084       .  S
C430        C435   1.412   1_655  A
C430       C1805   1.405       .  A
C431        C432   1.403       .  A
C431       C1804   1.405       .  A
C431        H446   1.085       .  S
C432        C433   1.414       .  A
C432        C436   1.444       .  S
C433       C1808   1.405       .  A
C434        C435   1.401       .  A
C434       C1807   1.405   1_455  A
C434        H447   1.085       .  S
C435        C437   1.444       .  S
C436        N440   1.157       .  T
C437        N441   1.157       .  T
C438        N443   1.157       .  T
C439        N442   1.157       .  T
C448        C453   1.403       .  A
C448       C1823   1.416       .  A
C448        C462   1.444       .  S
C449        C450   1.407       .  A
C449       C1822   1.416       .  A
C449        C454   1.497       .  S
C450        C451   1.400       .  A
C450        H469   1.084   1_655  S
C451        C452   1.408       .  A
C451        C463   1.444   1_655  S
C452       C1827   1.402       .  A
C453       C1826   1.402       .  A
C453        H468   1.085       .  S
C454        C459   1.414       .  A
C454       C1829   1.406       .  A
C455        C456   1.403       .  A
C455       C1828   1.406       .  A
C455        H470   1.084       .  S
C456       C1831   1.413       .  A
C456        C460   1.442       .  S
C457        C458   1.406       .  A
C457       C1830   1.413       .  A
C458        C459   1.403       .  A
C458        H471   1.084       .  S
C459        C461   1.445       .  S
C460        N464   1.157       .  T
C461        N465   1.157   1_655  T
C462        N467   1.157       .  T
C463        N466   1.157       .  T
C472        C473   1.417       .  A
C472        C477   1.400       .  A
C472        C486   1.444   1_655  S
C473       C1848   1.408       .  A
C473        C478   1.498       .  S
C474        C475   1.403       .  A
C474       C1847   1.408       .  A
C474        H493   1.084       .  S
C475       C1850   1.409       .  A
C475        C487   1.443       .  S
C476        C477   1.400       .  A
C476       C1849   1.409       .  A
C477        H492   1.085   1_655  S
C478        C483   1.415       .  A
C478       C1853   1.409       .  A
C479        C480   1.405       .  A
C479       C1852   1.409       .  A
C479        H494   1.084       .  S
C480       C1855   1.412       .  A
C480        C484   1.443       .  S
C481        C482   1.405       .  A
C481       C1854   1.412       .  A
C482        C483   1.399       .  A
C482        H495   1.085       .  S
C483        C485   1.445       .  S
C484        N488   1.157       .  T
C485        N489   1.157   1_655  T
C486        N491   1.157       .  T
C487        N490   1.157       .  T
C496        C497   1.409       .  A
C496        C501   1.401       .  A
C496        C510   1.444       .  S
C497       C1872   1.401   1_455  A
C497       C1876   1.482       .  S
C498        C499   1.398       .  A
C498       C1871   1.401       .  A
C498        H517   1.086       .  S
C499       C1874   1.417       .  A
C499        C511   1.445       .  S
C500        C501   1.405       .  A
C500       C1873   1.417   1_455  A
C501        H516   1.085       .  S
C502        C507   1.410       .  A
C502       C1877   1.405       .  A
C502       C1871   1.482       .  S
C503        C504   1.402       .  A
C503       C1876   1.405       .  A
C503        H518   1.084       .  S
C504        C505   1.409       .  A
C504        C508   1.443       .  S
C505       C1880   1.403   1_455  A
C506        C507   1.396       .  A
C506       C1879   1.403       .  A
C506        H519   1.085       .  S
C507        C509   1.444       .  S
C508        N512   1.157       .  T
C509        N513   1.157       .  T
C510        N515   1.157       .  T
C511        N514   1.157       .  T
C520        C521   1.415       .  A
C520        C525   1.404       .  A
C520        C534   1.444       .  S
C521       C1896   1.405       .  A
C521        C526   1.497       .  S
C522        C523   1.399       .  A
C522       C1895   1.405       .  A
C522        H541   1.084       .  S
C523        C524   1.414       .  A
C523        C535   1.444       .  S
C524       C1899   1.405   1_455  A
C525       C1898   1.405       .  A
C525        H540   1.084       .  S
C526        C531   1.416       .  A
C526       C1901   1.407       .  A
C527        C528   1.400       .  A
C527       C1900   1.407       .  A
C527        H542   1.084       .  S
C528        C529   1.410       .  A
C528        C532   1.442       .  S
C529       C1904   1.403   1_455  A
C530        C531   1.401       .  A
C530       C1903   1.403       .  A
C530        H543   1.085       .  S
C531        C533   1.444       .  S
C532        N536   1.157       .  T
C533        N537   1.157       .  T
C534        N539   1.157       .  T
C535        N538   1.157       .  T
C544        C549   1.402       .  A
C544       C1919   1.415       .  A
C544        C558   1.444       .  S
C545        C546   1.407       .  A
C545       C1918   1.415       .  A
C545        C550   1.495       .  S
C546        C547   1.398       .  A
C546        H565   1.084   1_655  S
C547        C548   1.410       .  A
C547        C559   1.443   1_655  S
C548       C1923   1.404       .  A
C549       C1922   1.404       .  A
C549        H564   1.085       .  S
C550        C555   1.415   1_655  A
C550       C1925   1.409       .  A
C551        C552   1.403       .  A
C551       C1924   1.409       .  A
C551        H566   1.084       .  S
C552       C1927   1.408       .  A
C552        C556   1.443       .  S
C553        C554   1.397   1_655  A
C553       C1926   1.408       .  A
C554        C555   1.396       .  A
C554        H567   1.080       .  S
C555        C557   1.444       .  S
C556        N560   1.157       .  T
C557        N561   1.157       .  T
C558        N563   1.157       .  T
C559        N562   1.157       .  T
C568        C569   1.415   1_455  A
C568        C573   1.406       .  A
C568        C582   1.444       .  S
C569       C1944   1.406       .  A
C569        C574   1.500       .  S
C570        C571   1.401       .  A
C570       C1943   1.406       .  A
C570        H589   1.084       .  S
C571       C1946   1.410       .  A
C571        C583   1.442       .  S
C572        C573   1.405   1_655  A
C572       C1945   1.410       .  A
C573        H588   1.084       .  S
C574        C575   1.406   1_655  A
C574       C1953   1.414       .  A
C575        C576   1.404       .  A
C575        H590   1.084       .  S
C576        C577   1.415       .  A
C576        C580   1.444       .  S
C577       C1952   1.406   1_455  A
C578        C579   1.402       .  A
C578       C1951   1.406       .  A
C578        H591   1.082       .  S
C579       C1948   1.414       .  A
C579        C581   1.444       .  S
C580        N584   1.157       .  T
C581        N585   1.157       .  T
C582        N587   1.157       .  T
C583        N586   1.157       .  T
C592        C593   1.420       .  A
C592        C597   1.404       .  A
C592        C606   1.444       .  S
C593        C594   1.408       .  A
C593        C598   1.501       .  S
C594        C595   1.398       .  A
C594        H613   1.084       .  S
C595        C596   1.407       .  A
C595        C607   1.444       .  S
C596        C597   1.401       .  A
C597        H612   1.085       .  S
C598        C599   1.409       .  A
C598        C603   1.417       .  A
C599        C600   1.400       .  A
C599        H614   1.084       .  S
C600        C601   1.409       .  A
C600        C604   1.444       .  S
C601        C602   1.402       .  A
C602        C603   1.405       .  A
C602        H615   1.084       .  S
C603        C605   1.444       .  S
C604        N608   1.157       .  T
C605        N609   1.157       .  T
C606        N611   1.158       .  T
C607        N610   1.157       .  T
C616        C617   1.409       .  A
C616        C621   1.399       .  A
C616        C630   1.445       .  S
C617        C618   1.403       .  A
C617        C622   1.486       .  S
C618        C619   1.404       .  A
C618        H637   1.084       .  S
C619        C620   1.415       .  A
C619        C631   1.443       .  S
C620        C621   1.407       .  A
C621        H636   1.084       .  S
C622        C623   1.400       .  A
C622        C627   1.411       .  A
C623        C624   1.396       .  A
C623        H638   1.085       .  S
C624        C625   1.415       .  A
C624        C628   1.444       .  S
C625        C626   1.407       .  A
C626        C627   1.405       .  A
C626        H639   1.084       .  S
C627        C629   1.444       .  S
C628        N632   1.157       .  T
C629        N633   1.157       .  T
C630        N635   1.157       .  T
C631        N634   1.157       .  T
C640        C641   1.411       .  A
C640        C645   1.401       .  A
C640        C654   1.444       .  S
C641        C642   1.406       .  A
C641        C646   1.494       .  S
C642        C643   1.404       .  A
C642        H661   1.084       .  S
C643        C644   1.413       .  A
C643        C655   1.443       .  S
C644        C645   1.405       .  A
C645        H660   1.080       .  S
C646        C647   1.407       .  A
C646        C651   1.413       .  A
C647        C648   1.402       .  A
C647        H662   1.084       .  S
C648        C649   1.411       .  A
C648        C652   1.444       .  S
C649        C650   1.404       .  A
C650        C651   1.402       .  A
C650        H663   1.084       .  S
C651        C653   1.443       .  S
C652        N656   1.157       .  T
C653        N657   1.157       .  T
C654        N659   1.157       .  T
C655        N658   1.157       .  T
C664        C665   1.412       .  A
C664        C669   1.401       .  A
C664        C678   1.444       .  S
C665        C666   1.404       .  A
C665        C670   1.491       .  S
C666        C667   1.403       .  A
C666        H685   1.084       .  S
C667        C668   1.414       .  A
C667        C679   1.443       .  S
C668        C669   1.405       .  A
C669        H684   1.085       .  S
C670        C671   1.404       .  A
C670        C675   1.412       .  A
C671        C672   1.401       .  A
C671        H686   1.085       .  S
C672        C673   1.412       .  A
C672        C676   1.443       .  S
C673        C674   1.405       .  A
C674        C675   1.403       .  A
C674        H687   1.085       .  S
C675        C677   1.444       .  S
C676        N680   1.157       .  T
C677        N681   1.157       .  T
C678        N683   1.157       .  T
C679       N2056   1.157       .  T
N682       C2053   1.157       .  T
C688        C689   1.417       .  A
C688        C693   1.411       .  A
C688       C1360   1.491       .  S
C689        C690   1.402       .  A
C689       C1312   1.492       .  S
C690        C691   1.398       .  A
C690        H695   1.084       .  S
C691        C692   1.414       .  A
C691       C1283   1.482       .  S
C692        C693   1.411       .  A
C692       C1331   1.496       .  S
C693        H694   1.084       .  S
C696        C697   1.419       .  A
C696        C701   1.400       .  A
C696       C1192   1.480       .  S
C697        C698   1.410   1_455  A
C697       C1264   1.501       .  S
C698        C699   1.405   1_655  A
C698        H703   1.083       .  S
C699        C700   1.413       .  A
C699       C1240   1.481   1_455  S
C700        C701   1.397       .  A
C700       C1216   1.486       .  S
C701        H702   1.085       .  S
In704      O1394   2.255       .  S
In704       O711   2.254       .  S
In704      O2086   2.250       .  S
In704      O2087   2.232       .  S
In704      O2090   2.242       .  S
C705       C1211   1.486       .  S
C705       O2085   1.266   1_455  A
C705        O713   1.261       .  A
O706       C2088   1.259       .  A
O707      In1391   2.255   1_565  S
O707        C714   1.264       .  A
C708       C1307   1.487       .  S
C708        O715   1.260       .  A
C708        O709   1.264       .  A
C710       C1288   1.478       .  S
C710        O712   1.264       .  A
C710        O716   1.262       .  A
O711       C2079   1.266       .  A
O712      In2078   2.250       .  S
O713      In2078   2.232       .  S
C714       C1187   1.482       .  S
C714       O2080   1.259   1_455  A
O716      In2078   2.242       .  S
C717        C718   1.425       .  A
C717        C722   1.410       .  A
C717       C1168   1.494       .  S
C718        C719   1.407       .  A
C718       C1115   1.499       .  S
C719        C720   1.402       .  A
C719       H2098   1.084       .  S
C720        C721   1.410       .  A
C720       C1096   1.490       .  S
C721        C722   1.402       .  A
C721       C1139   1.484       .  S
C722        H723   1.085       .  S
H724       C2093   1.084       .  S
In725      O1415   2.255       .  S
In725       O730   2.245   1_545  S
In725       O732   2.250   1_545  S
In725      O1420   2.257       .  S
In725      O2108   2.235   1_545  S
In725      O2111   2.222   1_545  S
C726       C1120   1.484       .  S
C726        O732   1.264       .  A
C726       O2108   1.261       .  A
O727       C2109   1.260       .  A
O728      In1412   2.255       .  S
O728        C735   1.267       .  A
C729       C1048   1.482       .  S
C729        O736   1.263       .  A
C731       C1067   1.486       .  S
C731        O733   1.266       .  A
O733      In1412   2.257       .  S
O734      In2099   2.235   1_565  S
O734       C2100   1.261   1_455  A
C735       C1091   1.478   1_455  S
C735       O2101   1.260   1_455  A
O737      In2099   2.222   1_565  S
C738        C739   1.414       .  A
C738        C743   1.401       .  A
C738       C1072   1.484       .  S
C739        C740   1.410       .  A
C739       C1019   1.493       .  S
C740        C741   1.409       .  A
C740        H745   1.084       .  S
C741        C742   1.417       .  A
C741       C1000   1.493       .  S
C742        C743   1.404       .  A
C742       C1043   1.490       .  S
C743        H744   1.084       .  S
C746        C747   1.413       .  A
C746        C751   1.404       .  A
C746        C971   1.485       .  S
C747        C748   1.399       .  A
C747        C904   1.481       .  S
C748        C749   1.400       .  A
C748        H753   1.085       .  S
C749        C750   1.417       .  A
C749        C928   1.486       .  S
C750        C751   1.407       .  A
C750        C947   1.487       .  S
C751        H752   1.084       .  S
C754        C755   1.420       .  A
C754        C759   1.404   1_565  A
C754       C1355   1.492       .  S
C755        C756   1.409   1_565  A
C755        C976   1.497       .  S
C756       C1444   1.407       .  A
C756        H761   1.084       .  S
C757       C1443   1.407       .  A
C757        C758   1.417       .  A
C757        C952   1.495       .  S
C758       C1446   1.402       .  A
C758       C1336   1.489       .  S
C759       C1445   1.402       .  A
C759        H760   1.085   1_545  S
In762       O767   2.244       .  S
In762      O2143   2.246       .  S
In762      O1457   2.248       .  S
In762      O2145   2.235       .  S
In762      O2148   2.231       .  S
C763        C923   1.485       .  S
C763        O769   1.264       .  A
C763        O771   1.260       .  A
O764        C772   1.258       .  A
O765        C772   1.265       .  A
C766        C851   1.483       .  S
C766        O767   1.263       .  A
C768        C875   1.476   1_565  S
C768        O770   1.265       .  A
O769      In2136   2.246       .  S
O770      In1449   2.248       .  S
O771      In2136   2.235       .  S
C772        C899   1.486       .  S
O774      In2136   2.231       .  S
C775        C776   1.414       .  A
C775        C780   1.402       .  A
C775        C880   1.483       .  S
C776        C777   1.408       .  A
C776        C832   1.494       .  S
C777        C778   1.410       .  A
C777        H782   1.084       .  S
C778        C779   1.416       .  A
C778        C808   1.495       .  S
C779        C780   1.402       .  A
C779        C856   1.485       .  S
C780        H781   1.085       .  S
C783        C784   1.420   1_556  A
C783       C2162   1.410       .  A
C783       C1024   1.497       .  S
C784       C2159   1.409       .  A
C784        C827   1.501       .  S
C785       C2158   1.409       .  A
C785        C786   1.410       .  A
C785        H790   1.084       .  S
C786        C787   1.420   1_554  A
C786        C803   1.498       .  S
C787        C788   1.406       .  A
C787        C995   1.499       .  S
C788       C2157   1.410       .  A
C788        H789   1.084       .  S
C791        C792   1.414       .  A
C791       C1259   1.492       .  S
C792       C1163   1.483       .  S
C793        C794   1.406       .  A
C793        H798   1.084       .  S
C794        C795   1.421       .  A
C794       C1144   1.497       .  S
C795        C796   1.407       .  A
C795       C1235   1.487       .  S
C796        H797   1.084       .  S
C799        C800   1.412       .  A
C799        C804   1.404       .  A
C799        C813   1.444       .  S
C800        C805   1.492       .  S
C801        C802   1.402       .  A
C801        H820   1.085       .  S
C802        C814   1.444       .  S
C803        C804   1.407       .  A
C804        H819   1.084       .  S
C805        C810   1.412       .  A
C806        C807   1.404       .  A
C806        H821   1.085       .  S
C807        C808   1.414   1_565  A
C807        C811   1.444       .  S
C809        C810   1.403       .  A
C809        H822   1.083       .  S
C810        C812   1.443       .  S
C811        N815   1.157       .  T
C812        N816   1.157       .  T
C813        N818   1.157       .  T
C814        N817   1.157       .  T
C823        C824   1.413   1_565  A
C823        C828   1.406       .  A
C823        C837   1.444       .  S
C824        C829   1.494       .  S
C825        C826   1.403       .  A
C825        H844   1.085       .  S
C826        C827   1.415       .  A
C826        C838   1.443       .  S
C828        H843   1.084       .  S
C829        C834   1.412   1_545  A
C830        C831   1.403       .  A
C830        H845   1.085       .  S
C831        C835   1.444       .  S
C832        C833   1.406   1_545  A
C833        C834   1.403       .  A
C833        H846   1.082       .  S
C834        C836   1.443       .  S
C835        N839   1.157       .  T
C836        N840   1.157       .  T
C837        N842   1.157       .  T
C838        N841   1.157       .  T
C847        C848   1.413       .  A
C847        C852   1.401       .  A
C847        C861   1.444       .  S
C848        C853   1.494       .  S
C849        C850   1.402       .  A
C849        H868   1.085       .  S
C850        C862   1.444       .  S
C851        C852   1.405       .  A
C852        H867   1.085       .  S
C853        C858   1.414       .  A
C854        C855   1.402       .  A
C854        H869   1.084       .  S
C855        C856   1.408   1_565  A
C855        C859   1.443       .  S
C857        C858   1.402       .  A
C857        H870   1.085       .  S
C858        C860   1.444       .  S
C859        N863   1.157       .  T
C860        N864   1.157       .  T
C861        N866   1.157       .  T
C862        N865   1.157       .  T
C871        C872   1.414       .  A
C871        C876   1.399       .  A
C871        C885   1.444       .  S
C872        C877   1.491       .  S
C873        C874   1.403       .  A
C873        H892   1.085       .  S
C874        C875   1.413       .  A
C874        C886   1.445       .  S
C876        H891   1.085       .  S
C877        C882   1.414       .  A
C878        C879   1.399       .  A
C878        H893   1.084       .  S
C879        C880   1.409   1_565  A
C879        C883   1.444       .  S
C881        C882   1.404       .  A
C881        H894   1.084       .  S
C882        C884   1.444       .  S
C883        N887   1.157       .  T
C884        N888   1.157       .  T
C885        N890   1.157       .  T
C886        N889   1.158       .  T
C895        C896   1.410       .  A
C895        C900   1.404       .  A
C895        C909   1.444       .  S
C896        C897   1.399       .  A
C896        C901   1.484       .  S
C897        C898   1.399       .  A
C897        H916   1.085       .  S
C898        C899   1.418       .  A
C898        C910   1.444       .  S
C899        C900   1.406       .  A
C900        H915   1.084       .  S
C901        C902   1.405       .  A
C901        C906   1.410       .  A
C902        C903   1.403       .  A
C902        H917   1.085       .  S
C903        C904   1.411       .  A
C903        C907   1.443       .  S
C904        C905   1.402       .  A
C905        C906   1.397       .  A
C905        H918   1.085       .  S
C906        C908   1.444       .  S
C907        N911   1.157       .  T
C908        N912   1.157       .  T
C909        N914   1.157       .  T
C910        N913   1.157       .  T
C919        C920   1.412       .  A
C919        C924   1.400       .  A
C919        C933   1.444       .  S
C920        C921   1.403       .  A
C920        C925   1.489       .  S
C921        C922   1.400       .  A
C921        H940   1.085       .  S
C922        C923   1.417       .  A
C922        C934   1.444       .  S
C923        C924   1.405       .  A
C924        H939   1.085       .  S
C925        C926   1.405       .  A
C925        C930   1.412       .  A
C926        C927   1.402       .  A
C926        H941   1.085       .  S
C927        C928   1.411       .  A
C927        C931   1.443       .  S
C928        C929   1.403       .  A
C929        C930   1.398       .  A
C929        H942   1.085       .  S
C930        C932   1.444       .  S
C931        N935   1.157       .  T
C932        N936   1.157       .  T
C933        N938   1.157       .  T
C934        N937   1.157       .  T
C943        C944   1.412       .  A
C943        C948   1.400       .  A
C943        C957   1.444       .  S
C944        C945   1.404       .  A
C944        C949   1.489       .  S
C945        C946   1.401       .  A
C945        H964   1.085       .  S
C946        C947   1.412       .  A
C946        C958   1.443       .  S
C947        C948   1.404       .  A
C948        H963   1.085       .  S
C949        C950   1.403       .  A
C949        C954   1.411       .  A
C950        C951   1.401       .  A
C950        H965   1.085       .  S
C951        C952   1.414       .  A
C951        C955   1.443       .  S
C952        C953   1.407       .  A
C953        C954   1.401       .  A
C953        H966   1.084       .  S
C954        C956   1.444       .  S
C955       N2333   1.157   1_455  T
C956        N960   1.157       .  T
C957        N962   1.157       .  T
C958        N961   1.157       .  T
N959       C2329   1.157       .  T
C967        C968   1.414       .  A
C967        C972   1.403       .  A
C967        C981   1.444       .  S
C968        C969   1.405       .  A
C968        C973   1.492       .  S
C969        C970   1.402       .  A
C969        H988   1.084       .  S
C970        C971   1.410       .  A
C970        C982   1.443       .  S
C971        C972   1.403       .  A
C972        H987   1.085       .  S
C973        C974   1.403       .  A
C973        C978   1.413       .  A
C974        C975   1.401       .  A
C974        H989   1.085       .  S
C975        C976   1.415       .  A
C975        C979   1.444       .  S
C976        C977   1.407       .  A
C977        C978   1.403       .  A
C977        H990   1.084       .  S
C978        C980   1.444       .  S
C979        N983   1.157       .  T
C980        N984   1.157       .  T
C981        N986   1.157       .  T
C982        N985   1.157       .  T
C991        C992   1.415       .  A
C991        C996   1.406       .  A
C991       C1005   1.444       .  S
C992        C997   1.500       .  S
C993        C994   1.405       .  A
C993       H1012   1.084       .  S
C994       C1006   1.443       .  S
C995        C996   1.406       .  A
C996       H1011   1.084       .  S
C997       C1002   1.416       .  A
C998        C999   1.405       .  A
C998       H1013   1.084       .  S
C999       C1003   1.444       .  S
C1000      C1001   1.402       .  A
C1001      C1002   1.403       .  A
C1001      H1014   1.084       .  S
C1002      C1004   1.443       .  S
C1003      N1007   1.157       .  T
C1004      N1008   1.157       .  T
C1005      N1010   1.157       .  T
C1006      N1009   1.157   1_556  T
C1015      C1016   1.413       .  A
C1015      C1020   1.403       .  A
C1015      C1029   1.444       .  S
C1016      C1021   1.494       .  S
C1017      C1018   1.404       .  A
C1017      H1036   1.085       .  S
C1018      C1030   1.443       .  S
C1019      C1020   1.405       .  A
C1020      H1035   1.082       .  S
C1021      C1026   1.413       .  A
C1022      C1023   1.403       .  A
C1022      H1037   1.085       .  S
C1023      C1027   1.444       .  S
C1024      C1025   1.406       .  A
C1025      C1026   1.404       .  A
C1025      H1038   1.084   1_556  S
C1026      C1028   1.444       .  S
C1027      N2405   1.157   1_455  T
C1028      N1032   1.157       .  T
C1029      N1034   1.157       .  T
C1030      N1033   1.157       .  T
N1031      C2401   1.157       .  T
C1039      C1040   1.412   1_565  A
C1039      C1044   1.398       .  A
C1039      C1053   1.444       .  S
C1040      C1045   1.488       .  S
C1041      C1042   1.402       .  A
C1041      H1060   1.085       .  S
C1042      C1043   1.413       .  A
C1042      C1054   1.443       .  S
C1044      H1059   1.085       .  S
C1045      C1050   1.411   1_545  A
C1046      C1047   1.400       .  A
C1046      H1061   1.085       .  S
C1047      C1048   1.415       .  A
C1047      C1051   1.444       .  S
C1049      C1050   1.402       .  A
C1049      H1062   1.084       .  S
C1050      C1052   1.444       .  S
C1051      N1055   1.157       .  T
C1052      N1056   1.157       .  T
C1053      N1058   1.157       .  T
C1054      N1057   1.157       .  T
C1063      C1064   1.412       .  A
C1063      C1068   1.399       .  A
C1063      C1077   1.444       .  S
C1064      C1069   1.493       .  S
C1065      C1066   1.403       .  A
C1065      H1084   1.085       .  S
C1066      C1078   1.443       .  S
C1067      C1068   1.407       .  A
C1068      H1083   1.085       .  S
C1069      C1074   1.415       .  A
C1070      C1071   1.401       .  A
C1070      H1085   1.084       .  S
C1071      C1075   1.444       .  S
C1072      C1073   1.401       .  A
C1073      C1074   1.401       .  A
C1073      H1086   1.084       .  S
C1074      C1076   1.444       .  S
C1075      N1079   1.157       .  T
C1076      N1080   1.157       .  T
C1077      N1082   1.157       .  T
C1078      N1081   1.157       .  T
C1087      C1088   1.414       .  A
C1087      C1092   1.398       .  A
C1087      C1101   1.445       .  S
C1088      C2463   1.407       .  A
C1088      C1093   1.491       .  S
C1089      C2462   1.407   1_455  A
C1089      C1090   1.403       .  A
C1089      H1108   1.085       .  S
C1090      C1091   1.411   1_455  A
C1090      C1102   1.444       .  S
C1091      C2466   1.403       .  A
C1092      C2465   1.403       .  A
C1092      H1107   1.085       .  S
C1093      C2468   1.404       .  A
C1093      C1098   1.414       .  A
C1094      C2467   1.404   1_455  A
C1094      C1095   1.400       .  A
C1094      H1109   1.085       .  S
C1095      C1096   1.412   1_455  A
C1095      C1099   1.443       .  S
C1096      C2471   1.404       .  A
C1097      C2470   1.404       .  A
C1097      C1098   1.401       .  A
C1097      H1110   1.083       .  S
C1098      C1100   1.444       .  S
C1099      N1103   1.157       .  T
C1100      N1104   1.157       .  T
C1101      N1106   1.157       .  T
C1102      N1105   1.157       .  T
C1111      C1112   1.413       .  A
C1111      C1116   1.404       .  A
C1111      C1125   1.444   1_655  S
C1112      C2487   1.401       .  A
C1112      C1117   1.491       .  S
C1113      C2486   1.401       .  A
C1113      C1114   1.399       .  A
C1113      H1132   1.085       .  S
C1114      C2489   1.418       .  A
C1114      C1126   1.445       .  S
C1115      C2488   1.418       .  A
C1115      C1116   1.407       .  A
C1116      H1131   1.084       .  S
C1117      C2492   1.405       .  A
C1117      C1122   1.412   1_655  A
C1118      C2491   1.405       .  A
C1118      C1119   1.403       .  A
C1118      H1133   1.085       .  S
C1119      C1120   1.414       .  A
C1119      C1123   1.444       .  S
C1120      C2495   1.405       .  A
C1121      C2494   1.405   1_455  A
C1121      C1122   1.401       .  A
C1121      H1134   1.085       .  S
C1122      C1124   1.444       .  S
C1123      N1127   1.157       .  T
C1124      N1128   1.157       .  T
C1125      N1130   1.157       .  T
C1126      N1129   1.157       .  T
C1135      C2510   1.416       .  A
C1135      C1140   1.403       .  A
C1135      C1149   1.444       .  S
C1136      C2509   1.416       .  A
C1136      C1137   1.407       .  A
C1136      C1141   1.497       .  S
C1137      C1138   1.400       .  A
C1137      H1156   1.084   1_655  S
C1138      C1139   1.408       .  A
C1138      C1150   1.444   1_655  S
C1139      C2514   1.402       .  A
C1140      C2513   1.402       .  A
C1140      H1155   1.085       .  S
C1141      C2516   1.406       .  A
C1141      C1146   1.414       .  A
C1142      C2515   1.406       .  A
C1142      C1143   1.403       .  A
C1142      H1157   1.084       .  S
C1143      C2518   1.413       .  A
C1143      C1147   1.442       .  S
C1144      C2517   1.413       .  A
C1144      C1145   1.406       .  A
C1145      C1146   1.403       .  A
C1145      H1158   1.084       .  S
C1146      C1148   1.445       .  S
C1147      N1151   1.157       .  T
C1148      N1152   1.157   1_655  T
C1149      N1154   1.157       .  T
C1150      N1153   1.157       .  T
C1159      C1160   1.417       .  A
C1159      C1164   1.400       .  A
C1159      C1173   1.444   1_655  S
C1160      C2535   1.408       .  A
C1160      C1165   1.498       .  S
C1161      C2534   1.408       .  A
C1161      C1162   1.403       .  A
C1161      H1180   1.084       .  S
C1162      C2537   1.409       .  A
C1162      C1174   1.443       .  S
C1163      C2536   1.409       .  A
C1163      C1164   1.400       .  A
C1164      H1179   1.085   1_655  S
C1165      C2540   1.409       .  A
C1165      C1170   1.415       .  A
C1166      C2539   1.409       .  A
C1166      C1167   1.405       .  A
C1166      H1181   1.084       .  S
C1167      C2542   1.412       .  A
C1167      C1171   1.443       .  S
C1168      C2541   1.412       .  A
C1168      C1169   1.405       .  A
C1169      C1170   1.399       .  A
C1169      H1182   1.085       .  S
C1170      C1172   1.445       .  S
C1171      N1175   1.157       .  T
C1172      N1176   1.157   1_655  T
C1173      N1178   1.157       .  T
C1174      N1177   1.157       .  T
C1183      C1184   1.409       .  A
C1183      C1188   1.401       .  A
C1183      C1197   1.444       .  S
C1184      C2559   1.401   1_455  A
C1184      C2563   1.482       .  S
C1185      C2558   1.401       .  A
C1185      C1186   1.398       .  A
C1185      H1204   1.086       .  S
C1186      C2561   1.417       .  A
C1186      C1198   1.445       .  S
C1187      C2560   1.417   1_455  A
C1187      C1188   1.405       .  A
C1188      H1203   1.085       .  S
C1189      C2564   1.405       .  A
C1189      C1194   1.410       .  A
C1189      C2558   1.482       .  S
C1190      C2563   1.405       .  A
C1190      C1191   1.402       .  A
C1190      H1205   1.084       .  S
C1191      C1192   1.409       .  A
C1191      C1195   1.443       .  S
C1192      C2567   1.403   1_455  A
C1193      C2566   1.403       .  A
C1193      C1194   1.396       .  A
C1193      H1206   1.085       .  S
C1194      C1196   1.444       .  S
C1195      N1199   1.157       .  T
C1196      N1200   1.157       .  T
C1197      N1202   1.157       .  T
C1198      N1201   1.157       .  T
C1207      C1208   1.415       .  A
C1207      C1212   1.404       .  A
C1207      C1221   1.444       .  S
C1208      C2583   1.405       .  A
C1208      C1213   1.497       .  S
C1209      C2582   1.405       .  A
C1209      C1210   1.399       .  A
C1209      H1228   1.084       .  S
C1210      C1211   1.414       .  A
C1210      C1222   1.444       .  S
C1211      C2586   1.405   1_455  A
C1212      C2585   1.405       .  A
C1212      H1227   1.084       .  S
C1213      C2588   1.407       .  A
C1213      C1218   1.416       .  A
C1214      C2587   1.407       .  A
C1214      C1215   1.400       .  A
C1214      H1229   1.084       .  S
C1215      C1216   1.410       .  A
C1215      C1219   1.442       .  S
C1216      C2591   1.403   1_455  A
C1217      C2590   1.403       .  A
C1217      C1218   1.401       .  A
C1217      H1230   1.085       .  S
C1218      C1220   1.444       .  S
C1219      N1223   1.157       .  T
C1220      N1224   1.157       .  T
C1221      N1226   1.157       .  T
C1222      N1225   1.157       .  T
C1231      C2606   1.415       .  A
C1231      C1236   1.402       .  A
C1231      C1245   1.444       .  S
C1232      C2605   1.415       .  A
C1232      C1233   1.407       .  A
C1232      C1237   1.495       .  S
C1233      C1234   1.398       .  A
C1233      H1252   1.084   1_655  S
C1234      C1235   1.410       .  A
C1234      C1246   1.443   1_655  S
C1235      C2610   1.404       .  A
C1236      C2609   1.404       .  A
C1236      H1251   1.085       .  S
C1237      C2612   1.409       .  A
C1237      C1242   1.415   1_655  A
C1238      C2611   1.409       .  A
C1238      C1239   1.403       .  A
C1238      H1253   1.084       .  S
C1239      C2614   1.408       .  A
C1239      C1243   1.443       .  S
C1240      C2613   1.408       .  A
C1240      C1241   1.397   1_655  A
C1241      C1242   1.396       .  A
C1241      H1254   1.080       .  S
C1242      C1244   1.444       .  S
C1243      N1247   1.157       .  T
C1244      N1248   1.157       .  T
C1245      N1250   1.157       .  T
C1246      N1249   1.157       .  T
C1255      C1256   1.415   1_455  A
C1255      C1260   1.406       .  A
C1255      C1269   1.444       .  S
C1256      C2631   1.406       .  A
C1256      C1261   1.500       .  S
C1257      C2630   1.406       .  A
C1257      C1258   1.401       .  A
C1257      H1276   1.084       .  S
C1258      C2633   1.410       .  A
C1258      C1270   1.442       .  S
C1259      C2632   1.410       .  A
C1259      C1260   1.405   1_655  A
C1260      H1275   1.084       .  S
C1261      C1262   1.406   1_655  A
C1261      C2640   1.414       .  A
C1262      C1263   1.404       .  A
C1262      H1277   1.084       .  S
C1263      C1264   1.415       .  A
C1263      C1267   1.444       .  S
C1264      C2639   1.406   1_455  A
C1265      C2638   1.406       .  A
C1265      C1266   1.402       .  A
C1265      H1278   1.082       .  S
C1266      C2635   1.414       .  A
C1266      C1268   1.444       .  S
C1267      N1271   1.157       .  T
C1268      N1272   1.157       .  T
C1269      N1274   1.157       .  T
C1270      N1273   1.157       .  T
C1279      C1280   1.420       .  A
C1279      C1284   1.404       .  A
C1279      C1293   1.444       .  S
C1280      C1281   1.408       .  A
C1280      C1285   1.501       .  S
C1281      C1282   1.398       .  A
C1281      H1300   1.084       .  S
C1282      C1283   1.407       .  A
C1282      C1294   1.444       .  S
C1283      C1284   1.401       .  A
C1284      H1299   1.085       .  S
C1285      C1286   1.409       .  A
C1285      C1290   1.417       .  A
C1286      C1287   1.400       .  A
C1286      H1301   1.084       .  S
C1287      C1288   1.409       .  A
C1287      C1291   1.444       .  S
C1288      C1289   1.402       .  A
C1289      C1290   1.405       .  A
C1289      H1302   1.084       .  S
C1290      C1292   1.444       .  S
C1291      N1295   1.157       .  T
C1292      N1296   1.157       .  T
C1293      N1298   1.158       .  T
C1294      N1297   1.157       .  T
C1303      C1304   1.409       .  A
C1303      C1308   1.399       .  A
C1303      C1317   1.445       .  S
C1304      C1305   1.403       .  A
C1304      C1309   1.486       .  S
C1305      C1306   1.404       .  A
C1305      H1324   1.084       .  S
C1306      C1307   1.415       .  A
C1306      C1318   1.443       .  S
C1307      C1308   1.407       .  A
C1308      H1323   1.084       .  S
C1309      C1310   1.400       .  A
C1309      C1314   1.411       .  A
C1310      C1311   1.396       .  A
C1310      H1325   1.085       .  S
C1311      C1312   1.415       .  A
C1311      C1315   1.444       .  S
C1312      C1313   1.407       .  A
C1313      C1314   1.405       .  A
C1313      H1326   1.084       .  S
C1314      C1316   1.444       .  S
C1315      N1319   1.157       .  T
C1316      N1320   1.157       .  T
C1317      N1322   1.157       .  T
C1318      N1321   1.157       .  T
C1327      C1328   1.411       .  A
C1327      C1332   1.401       .  A
C1327      C1341   1.444       .  S
C1328      C1329   1.406       .  A
C1328      C1333   1.494       .  S
C1329      C1330   1.404       .  A
C1329      H1348   1.084       .  S
C1330      C1331   1.413       .  A
C1330      C1342   1.443       .  S
C1331      C1332   1.405       .  A
C1332      H1347   1.080       .  S
C1333      C1334   1.407       .  A
C1333      C1338   1.413       .  A
C1334      C1335   1.402       .  A
C1334      H1349   1.084       .  S
C1335      C1336   1.411       .  A
C1335      C1339   1.444       .  S
C1336      C1337   1.404       .  A
C1337      C1338   1.402       .  A
C1337      H1350   1.084       .  S
C1338      C1340   1.443       .  S
C1339      N1343   1.157       .  T
C1340      N1344   1.157       .  T
C1341      N1346   1.157       .  T
C1342      N1345   1.157       .  T
C1351      C1352   1.412       .  A
C1351      C1356   1.401       .  A
C1351      C1365   1.444       .  S
C1352      C1353   1.404       .  A
C1352      C1357   1.491       .  S
C1353      C1354   1.403       .  A
C1353      H1372   1.084       .  S
C1354      C1355   1.414       .  A
C1354      C1366   1.443       .  S
C1355      C1356   1.405       .  A
C1356      H1371   1.085       .  S
C1357      C1358   1.404       .  A
C1357      C1362   1.412       .  A
C1358      C1359   1.401       .  A
C1358      H1373   1.085       .  S
C1359      C1360   1.412       .  A
C1359      C1363   1.443       .  S
C1360      C1361   1.405       .  A
C1361      C1362   1.403       .  A
C1361      H1374   1.085       .  S
C1362      C1364   1.444       .  S
C1363      N1367   1.157       .  T
C1364      N1368   1.157       .  T
C1365      N1370   1.157       .  T
C1366      N2743   1.157       .  T
N1369      C2740   1.157       .  T
C1375      C1376   1.417       .  A
C1375      C1380   1.411       .  A
C1375      C2047   1.491       .  S
C1376      C1377   1.402       .  A
C1376      C1999   1.492       .  S
C1377      C1378   1.398       .  A
C1377      H1382   1.084       .  S
C1378      C1379   1.414       .  A
C1378      C1970   1.482       .  S
C1379      C1380   1.411       .  A
C1379      C2018   1.496       .  S
C1380      H1381   1.084       .  S
C1383      C1384   1.419       .  A
C1383      C1388   1.400       .  A
C1383      C1879   1.480       .  S
C1384      C1385   1.410       .  A
C1384      C1951   1.501       .  S
C1385      C1386   1.405       .  A
C1385      H1390   1.083       .  S
C1386      C1387   1.413       .  A
C1386      C1927   1.481       .  S
C1387      C1388   1.397       .  A
C1387      C1903   1.486       .  S
C1388      H1389   1.085       .  S
In1391     O2080   2.225   1_445  S
In1391     O2089   2.230   1_445  S
In1391     O2083   2.258   1_445  S
In1391     O1398   2.254   1_455  S
C1392      C1898   1.486       .  S
C1392      O1400   1.261       .  A
O1393     In2078   2.225   1_655  S
O1394      C1401   1.264       .  A
C1395      C1994   1.487       .  S
C1395      O1402   1.260       .  A
C1395      O1396   1.264       .  A
O1396     In2078   2.258   1_655  S
C1397      C1975   1.478       .  S
C1397      O1399   1.264       .  A
C1397      O1403   1.262       .  A
C1401      C1874   1.482       .  S
O1402     In2078   2.230   1_655  S
C1404      C1405   1.425       .  A
C1404      C1409   1.410       .  A
C1404      C1855   1.494       .  S
C1405      C1406   1.407       .  A
C1405      C1802   1.499       .  S
C1406      C1407   1.402       .  A
C1407      C1408   1.410       .  A
C1407      C1783   1.490       .  S
C1408      C1409   1.402       .  A
C1408      C1826   1.484       .  S
C1409      H1410   1.085       .  S
In1412     O2101   2.220   1_455  S
In1412     O2110   2.234   1_455  S
In1412     O1417   2.245   1_455  S
In1412     O1419   2.250   1_455  S
C1413      C1807   1.484       .  S
C1413      O1419   1.264       .  A
O1414     In2099   2.220   1_655  S
O1415      C1422   1.267       .  A
C1416      C1735   1.482       .  S
C1416      O1423   1.263       .  A
C1416      O2104   1.266   1_545  A
O1417      C2103   1.266       .  A
C1418      C1754   1.486       .  S
C1418      O1420   1.266       .  A
C1418      O2111   1.261   1_545  A
C1422      C1778   1.478       .  S
O1423     In2099   2.234   1_655  S
O1424      C2105   1.261       .  A
C1425      C1426   1.414       .  A
C1425      C1430   1.401       .  A
C1425      C1759   1.484       .  S
C1426      C1427   1.410       .  A
C1426      C1706   1.493       .  S
C1427      C1428   1.409       .  A
C1427      H1432   1.084       .  S
C1428      C1429   1.417       .  A
C1428      C1687   1.493       .  S
C1429      C1430   1.404       .  A
C1429      C1730   1.490       .  S
C1430      H1431   1.084       .  S
C1433      C1434   1.413       .  A
C1433      C1438   1.404       .  A
C1433      C1658   1.485       .  S
C1434      C1435   1.399       .  A
C1434      C1591   1.481       .  S
C1435      C1436   1.400       .  A
C1435      H1440   1.085       .  S
C1436      C1437   1.417       .  A
C1436      C1615   1.486       .  S
C1437      C1438   1.407       .  A
C1437      C1634   1.487       .  S
C1438      H1439   1.084       .  S
C1441      C1442   1.420       .  A
C1441      C1446   1.404   1_655  A
C1441      C2042   1.492       .  S
C1442      C1443   1.409   1_655  A
C1442      C1663   1.497       .  S
C1443      H1448   1.084       .  S
C1444      C1445   1.417       .  A
C1444      C1639   1.495       .  S
C1445      C2023   1.489       .  S
C1446      H1447   1.085       .  S
In1449     O2138   2.225   1_455  S
In1449     O2139   2.268   1_455  S
In1449     O2147   2.239   1_455  S
In1449     O1454   2.244   1_465  S
C1450      C1610   1.485       .  S
C1450      O1456   1.264       .  A
C1450      O1458   1.260       .  A
O1451     In2136   2.225   1_655  S
O1451      C1459   1.258       .  A
O1452     In2136   2.268   1_655  S
O1452      C1459   1.265       .  A
C1453      C1538   1.483       .  S
C1453      O2147   1.262   1_545  A
C1453      O1454   1.263       .  A
C1455      C1562   1.476       .  S
C1455      O1457   1.265       .  A
C1455      O2148   1.261       .  A
C1459      C1586   1.486       .  S
O1460     In2136   2.239   1_655  S
O1460      C2140   1.262       .  A
O1461      C2142   1.261   1_545  A
C1462      C1463   1.414       .  A
C1462      C1467   1.402       .  A
C1462      C1567   1.483       .  S
C1463      C1464   1.408       .  A
C1463      C1519   1.494       .  S
C1464      C1465   1.410       .  A
C1464      H1469   1.084       .  S
C1465      C1466   1.416       .  A
C1465      C1495   1.495       .  S
C1466      C1467   1.402       .  A
C1466      C1543   1.485       .  S
C1467      H1468   1.085       .  S
C1470      C1471   1.420   1_556  A
C1470      C1711   1.497       .  S
C1471      C1514   1.501       .  S
C1472      C1473   1.410   1_455  A
C1472      H1477   1.084       .  S
C1473      C1474   1.420   1_554  A
C1473      C1490   1.498       .  S
C1474      C1475   1.406   1_655  A
C1474      C1682   1.499       .  S
C1475      H1476   1.084       .  S
C1478      C1479   1.414       .  A
C1478      C2170   1.403       .  A
C1478      C1946   1.492       .  S
C1479      C2167   1.405       .  A
C1479      C1850   1.483       .  S
C1480      C2166   1.405       .  A
C1480      C1481   1.406   1_565  A
C1480      H1485   1.084       .  S
C1481      C1482   1.421       .  A
C1481      C1831   1.497       .  S
C1482      C1483   1.407   1_545  A
C1482      C1922   1.487       .  S
C1483      C2165   1.403       .  A
C1483      H1484   1.084       .  S
C1486      C1487   1.412       .  A
C1486      C1491   1.404       .  A
C1486      C1500   1.444       .  S
C1487      C2175   1.402   1_545  A
C1487      C1492   1.492       .  S
C1488      C2174   1.402       .  A
C1488      C1489   1.402       .  A
C1488      H1507   1.085       .  S
C1489      C2177   1.416       .  A
C1489      C1501   1.444       .  S
C1490      C2176   1.416   1_545  A
C1490      C1491   1.407       .  A
C1491      H1506   1.084       .  S
C1492      C2180   1.404   1_545  A
C1492      C1497   1.412       .  A
C1493      C2179   1.404       .  A
C1493      C1494   1.404       .  A
C1493      H1508   1.085       .  S
C1494      C1495   1.414       .  A
C1494      C1498   1.444       .  S
C1495      C2183   1.405       .  A
C1496      C2182   1.405       .  A
C1496      C1497   1.403       .  A
C1496      H1509   1.083       .  S
C1497      C1499   1.443       .  S
C1498      N1502   1.157       .  T
C1499      N1503   1.157       .  T
C1500      N1505   1.157       .  T
C1501      N1504   1.157       .  T
C1510      C1511   1.413       .  A
C1510      C1515   1.406       .  A
C1510      C1524   1.444       .  S
C1511      C2199   1.403       .  A
C1511      C1516   1.494       .  S
C1512      C2198   1.403       .  A
C1512      C1513   1.403       .  A
C1512      H1531   1.085       .  S
C1513      C1514   1.415       .  A
C1513      C1525   1.443       .  S
C1514      C2202   1.408   1_545  A
C1515      C2201   1.408       .  A
C1515      H1530   1.084       .  S
C1516      C2204   1.405       .  A
C1516      C1521   1.412       .  A
C1517      C2203   1.405       .  A
C1517      C1518   1.403       .  A
C1517      H1532   1.085       .  S
C1518      C2206   1.412       .  A
C1518      C1522   1.444       .  S
C1519      C2205   1.412       .  A
C1519      C1520   1.406       .  A
C1520      C1521   1.403       .  A
C1520      H1533   1.082       .  S
C1521      C1523   1.443       .  S
C1522      N1526   1.157       .  T
C1523      N1527   1.157       .  T
C1524      N1529   1.157       .  T
C1525      N1528   1.157       .  T
C1534      C1535   1.413   1_565  A
C1534      C1539   1.401       .  A
C1534      C1548   1.444       .  S
C1535      C2223   1.406       .  A
C1535      C1540   1.494       .  S
C1536      C2222   1.406       .  A
C1536      C1537   1.402       .  A
C1536      H1555   1.085       .  S
C1537      C2225   1.413       .  A
C1537      C1549   1.444       .  S
C1538      C2224   1.413       .  A
C1538      C1539   1.405   1_545  A
C1539      H1554   1.085       .  S
C1540      C2228   1.407   1_545  A
C1540      C1545   1.414       .  A
C1541      C2227   1.407       .  A
C1541      C1542   1.402       .  A
C1541      H1556   1.084       .  S
C1542      C1543   1.408       .  A
C1542      C1546   1.443       .  S
C1543      C2231   1.403       .  A
C1544      C2230   1.403       .  A
C1544      C1545   1.402       .  A
C1544      H1557   1.085       .  S
C1545      C1547   1.444       .  S
C1546      N1550   1.157       .  T
C1547      N1551   1.157       .  T
C1548      N1553   1.157       .  T
C1549      N1552   1.157       .  T
C1558      C1559   1.414   1_565  A
C1558      C1563   1.399       .  A
C1558      C1572   1.444       .  S
C1559      C2247   1.405       .  A
C1559      C1564   1.491       .  S
C1560      C2246   1.405       .  A
C1560      C1561   1.403       .  A
C1560      H1579   1.085       .  S
C1561      C1562   1.413       .  A
C1561      C1573   1.445       .  S
C1562      C2250   1.400       .  A
C1563      C2249   1.400   1_565  A
C1563      H1578   1.085       .  S
C1564      C2252   1.405   1_545  A
C1564      C1569   1.414       .  A
C1565      C2251   1.405       .  A
C1565      C1566   1.399       .  A
C1565      H1580   1.084       .  S
C1566      C1567   1.409       .  A
C1566      C1570   1.444       .  S
C1567      C2255   1.403       .  A
C1568      C2254   1.403       .  A
C1568      C1569   1.404       .  A
C1568      H1581   1.084       .  S
C1569      C1571   1.444       .  S
C1570      N1574   1.157       .  T
C1571      N1575   1.157       .  T
C1572      N1577   1.157       .  T
C1573      N1576   1.158       .  T
C1582      C1583   1.410       .  A
C1582      C1587   1.404       .  A
C1582      C1596   1.444       .  S
C1583      C1584   1.399       .  A
C1583      C1588   1.484       .  S
C1584      C1585   1.399       .  A
C1584      H1603   1.085       .  S
C1585      C1586   1.418       .  A
C1585      C1597   1.444       .  S
C1586      C1587   1.406       .  A
C1587      H1602   1.084       .  S
C1588      C1589   1.405       .  A
C1588      C1593   1.410       .  A
C1589      C1590   1.403       .  A
C1589      H1604   1.085       .  S
C1590      C1591   1.411       .  A
C1590      C1594   1.443       .  S
C1591      C1592   1.402       .  A
C1592      C1593   1.397       .  A
C1592      H1605   1.085       .  S
C1593      C1595   1.444       .  S
C1594      N1598   1.157       .  T
C1595      N1599   1.157       .  T
C1596      N1601   1.157       .  T
C1597      N1600   1.157       .  T
C1606      C1607   1.411       .  A
C1606      C1611   1.400       .  A
C1606      C1620   1.444       .  S
C1607      C1608   1.403       .  A
C1607      C1612   1.489       .  S
C1608      C1609   1.400       .  A
C1608      H1627   1.085       .  S
C1609      C1610   1.417       .  A
C1609      C1621   1.444       .  S
C1610      C1611   1.405       .  A
C1611      H1626   1.085       .  S
C1612      C1613   1.405       .  A
C1612      C1617   1.412       .  A
C1613      C1614   1.402       .  A
C1613      H1628   1.085       .  S
C1614      C1615   1.411       .  A
C1614      C1618   1.443       .  S
C1615      C1616   1.403       .  A
C1616      C1617   1.398       .  A
C1616      H1629   1.085       .  S
C1617      C1619   1.444       .  S
C1618      N1622   1.157       .  T
C1619      N1623   1.157       .  T
C1620      N1625   1.157       .  T
C1621      N1624   1.157   1_545  T
C1630      C1631   1.412       .  A
C1630      C1635   1.400       .  A
C1630      C1644   1.444       .  S
C1631      C1632   1.404       .  A
C1631      C1636   1.489       .  S
C1632      C1633   1.401       .  A
C1632      H1651   1.085       .  S
C1633      C1634   1.412       .  A
C1633      C1645   1.443       .  S
C1634      C1635   1.404       .  A
C1635      H1650   1.085       .  S
C1636      C1637   1.403       .  A
C1636      C1641   1.411       .  A
C1637      C1638   1.401       .  A
C1637      H1652   1.085       .  S
C1638      C1639   1.414       .  A
C1638      C1642   1.443       .  S
C1639      C1640   1.407       .  A
C1640      C1641   1.401       .  A
C1640      H1653   1.084       .  S
C1641      C1643   1.444       .  S
C1643      N1647   1.157       .  T
C1644      N1649   1.157       .  T
C1645      N1648   1.157       .  T
C1654      C1655   1.414       .  A
C1654      C1659   1.403       .  A
C1654      C1668   1.444       .  S
C1655      C1656   1.405       .  A
C1655      C1660   1.492       .  S
C1656      C1657   1.401       .  A
C1656      H1675   1.084       .  S
C1657      C1658   1.410       .  A
C1657      C1669   1.443       .  S
C1658      C1659   1.403       .  A
C1659      H1674   1.085       .  S
C1660      C1661   1.403       .  A
C1660      C1665   1.413       .  A
C1661      C1662   1.401       .  A
C1661      H1676   1.085       .  S
C1662      C1663   1.415       .  A
C1662      C1666   1.444       .  S
C1663      C1664   1.407       .  A
C1664      C1665   1.403       .  A
C1664      H1677   1.084       .  S
C1665      C1667   1.444       .  S
C1666      N1670   1.157   1_655  T
C1667      N1671   1.157       .  T
C1668      N1673   1.157       .  T
C1669      N1672   1.157       .  T
C1678      C1679   1.415       .  A
C1678      C1683   1.406       .  A
C1678      C1692   1.444       .  S
C1679      C2367   1.406   1_545  A
C1679      C1684   1.500       .  S
C1680      C2366   1.406       .  A
C1680      C1681   1.405       .  A
C1680      H1699   1.084       .  S
C1681      C2369   1.413       .  A
C1681      C1693   1.443       .  S
C1682      C2368   1.413   1_545  A
C1682      C1683   1.406       .  A
C1683      H1698   1.084       .  S
C1684      C2372   1.408   1_545  A
C1684      C1689   1.416       .  A
C1685      C2371   1.408       .  A
C1685      C1686   1.405       .  A
C1685      H1700   1.084       .  S
C1686      C2374   1.412       .  A
C1686      C1690   1.444       .  S
C1687      C2373   1.412   1_545  A
C1687      C1688   1.402       .  A
C1688      C1689   1.403       .  A
C1688      H1701   1.084       .  S
C1689      C1691   1.443       .  S
C1690      N1694   1.157       .  T
C1691      N1695   1.157       .  T
C1692      N1697   1.157       .  T
C1693      N1696   1.157   1_556  T
C1702      C1703   1.413       .  A
C1702      C1707   1.403       .  A
C1702      C1716   1.444       .  S
C1703      C2391   1.405   1_545  A
C1703      C1708   1.494       .  S
C1704      C2390   1.405       .  A
C1704      C1705   1.404       .  A
C1704      H1723   1.085       .  S
C1705      C2393   1.412       .  A
C1705      C1717   1.443       .  S
C1706      C2392   1.412   1_545  A
C1706      C1707   1.405       .  A
C1707      H1722   1.082       .  S
C1708      C2396   1.403   1_545  A
C1708      C1713   1.413       .  A
C1709      C2395   1.403       .  A
C1709      C1710   1.403       .  A
C1709      H1724   1.085       .  S
C1710      C2398   1.415       .  A
C1710      C1714   1.444       .  S
C1711      C2397   1.415   1_545  A
C1711      C1712   1.406       .  A
C1712      C1713   1.404       .  A
C1712      H1725   1.084   1_556  S
C1713      C1715   1.444       .  S
C1715      N1719   1.157       .  T
C1716      N1721   1.157       .  T
C1717      N1720   1.157       .  T
C1726      C1727   1.412       .  A
C1726      C1731   1.398       .  A
C1726      C1740   1.444       .  S
C1727      C2415   1.404       .  A
C1727      C1732   1.488       .  S
C1728      C2414   1.404       .  A
C1728      C1729   1.402       .  A
C1728      H1747   1.085       .  S
C1729      C1730   1.413       .  A
C1729      C1741   1.443       .  S
C1730      C2418   1.404   1_545  A
C1731      C2417   1.404       .  A
C1731      H1746   1.085       .  S
C1732      C2420   1.402       .  A
C1732      C1737   1.411       .  A
C1733      C2419   1.402       .  A
C1733      C1734   1.400       .  A
C1733      H1748   1.085       .  S
C1734      C1735   1.415       .  A
C1734      C1738   1.444       .  S
C1735      C2423   1.405   1_545  A
C1736      C2422   1.405       .  A
C1736      C1737   1.402       .  A
C1736      H1749   1.084       .  S
C1737      C1739   1.444       .  S
C1738      N1742   1.157       .  T
C1739      N1743   1.157       .  T
C1740      N1745   1.157       .  T
C1741      N1744   1.157       .  T
C1750      C1751   1.412   1_565  A
C1750      C1755   1.399       .  A
C1750      C1764   1.444       .  S
C1751      C2439   1.406       .  A
C1751      C1756   1.493       .  S
C1752      C2438   1.406       .  A
C1752      C1753   1.403       .  A
C1752      H1771   1.085       .  S
C1753      C2441   1.414       .  A
C1753      C1765   1.443       .  S
C1754      C2440   1.414       .  A
C1754      C1755   1.407   1_545  A
C1755      H1770   1.085       .  S
C1756      C2444   1.406   1_545  A
C1756      C1761   1.415       .  A
C1757      C2443   1.406       .  A
C1757      C1758   1.401       .  A
C1757      H1772   1.084       .  S
C1758      C2446   1.409       .  A
C1758      C1762   1.444       .  S
C1759      C2445   1.409   1_545  A
C1759      C1760   1.401       .  A
C1760      C1761   1.401       .  A
C1760      H1773   1.084       .  S
C1761      C1763   1.444       .  S
C1762      N1766   1.157       .  T
C1763      N1767   1.157       .  T
C1764      N1769   1.157       .  T
C1765      N1768   1.157       .  T
C1774      C1775   1.414       .  A
C1774      C1779   1.398       .  A
C1774      C1788   1.445       .  S
C1775      C1780   1.491       .  S
C1776      C1777   1.403       .  A
C1776      H1795   1.085       .  S
C1777      C1778   1.411       .  A
C1777      C1789   1.444       .  S
C1779      H1794   1.085       .  S
C1780      C1785   1.414       .  A
C1781      C1782   1.400       .  A
C1781      H1796   1.085       .  S
C1782      C1783   1.412       .  A
C1782      C1786   1.443       .  S
C1784      C1785   1.401       .  A
C1784      H1797   1.083       .  S
C1785      C1787   1.444       .  S
C1786      N1790   1.157       .  T
C1787      N1791   1.157       .  T
C1788      N1793   1.157       .  T
C1789      N1792   1.157       .  T
C1798      C1799   1.413       .  A
C1798      C1803   1.404       .  A
C1798      C1812   1.444       .  S
C1799      C1804   1.491       .  S
C1800      C1801   1.399       .  A
C1800      H1819   1.085       .  S
C1801      C1813   1.445       .  S
C1802      C1803   1.407       .  A
C1803      H1818   1.084       .  S
C1804      C1809   1.412       .  A
C1805      C1806   1.403       .  A
C1805      H1820   1.085       .  S
C1806      C1807   1.414       .  A
C1806      C1810   1.444       .  S
C1808      C1809   1.401       .  A
C1808      H1821   1.085       .  S
C1809      C1811   1.444       .  S
C1810      N1814   1.157       .  T
C1811      N1815   1.157       .  T
C1812      N1817   1.157       .  T
C1813      N1816   1.157       .  T
C1822      C1827   1.403       .  A
C1822      C1836   1.444       .  S
C1823      C1824   1.407       .  A
C1823      C1828   1.497       .  S
C1824      C1825   1.400       .  A
C1824      H1843   1.084       .  S
C1825      C1826   1.408       .  A
C1825      C1837   1.444       .  S
C1827      H1842   1.085       .  S
C1828      C1833   1.414       .  A
C1829      C1830   1.403       .  A
C1829      H1844   1.084       .  S
C1830      C1834   1.442       .  S
C1831      C1832   1.406       .  A
C1832      C1833   1.403       .  A
C1832      H1845   1.084       .  S
C1833      C1835   1.445       .  S
C1834      N1838   1.157       .  T
C1835      N1839   1.157       .  T
C1836      N1841   1.157       .  T
C1837      N1840   1.157       .  T
C1846      C1847   1.417       .  A
C1846      C1851   1.400       .  A
C1846      C1860   1.444       .  S
C1847      C1852   1.498       .  S
C1848      C1849   1.403       .  A
C1848      H1867   1.084       .  S
C1849      C1861   1.443       .  S
C1850      C1851   1.400       .  A
C1851      H1866   1.085       .  S
C1852      C1857   1.415       .  A
C1853      C1854   1.405       .  A
C1853      H1868   1.084       .  S
C1854      C1858   1.443       .  S
C1855      C1856   1.405       .  A
C1856      C1857   1.399       .  A
C1856      H1869   1.085       .  S
C1857      C1859   1.445       .  S
C1858      N1862   1.157       .  T
C1859      N1863   1.157       .  T
C1860      N1865   1.157       .  T
C1861      N1864   1.157       .  T
C1870      C1871   1.409       .  A
C1870      C1875   1.401       .  A
C1870      C1884   1.444       .  S
C1872      C1873   1.398       .  A
C1872      H1891   1.086       .  S
C1873      C1885   1.445       .  S
C1874      C1875   1.405       .  A
C1875      H1890   1.085       .  S
C1876      C1881   1.410   1_455  A
C1877      C1878   1.402       .  A
C1877      H1892   1.084       .  S
C1878      C1879   1.409       .  A
C1878      C1882   1.443       .  S
C1880      C1881   1.396       .  A
C1880      H1893   1.085       .  S
C1881      C1883   1.444       .  S
C1882      N1886   1.157       .  T
C1883      N1887   1.157       .  T
C1884      N1889   1.157       .  T
C1885      N1888   1.157       .  T
C1894      C1895   1.415   1_655  A
C1894      C1899   1.404       .  A
C1894      C1908   1.444       .  S
C1895      C1900   1.497       .  S
C1896      C1897   1.399       .  A
C1896      H1915   1.084       .  S
C1897      C1898   1.414       .  A
C1897      C1909   1.444       .  S
C1899      H1914   1.084       .  S
C1900      C1905   1.416   1_455  A
C1901      C1902   1.400       .  A
C1901      H1916   1.084       .  S
C1902      C1903   1.410       .  A
C1902      C1906   1.442       .  S
C1904      C1905   1.401       .  A
C1904      H1917   1.085       .  S
C1905      C1907   1.444       .  S
C1906      N1910   1.157       .  T
C1907      N1911   1.157       .  T
C1908      N1913   1.157       .  T
C1909      N1912   1.157       .  T
C1918      C1923   1.402       .  A
C1918      C1932   1.444       .  S
C1919      C1920   1.407       .  A
C1919      C1924   1.495       .  S
C1920      C1921   1.398       .  A
C1920      H1939   1.084       .  S
C1921      C1922   1.410       .  A
C1921      C1933   1.443       .  S
C1923      H1938   1.085       .  S
C1924      C1929   1.415       .  A
C1925      C1926   1.403       .  A
C1925      H1940   1.084       .  S
C1926      C1930   1.443       .  S
C1927      C1928   1.397       .  A
C1928      C1929   1.396       .  A
C1928      H1941   1.080       .  S
C1929      C1931   1.444       .  S
C1930      N1934   1.157       .  T
C1931      N1935   1.157       .  T
C1932      N1937   1.157       .  T
C1933      N1936   1.157       .  T
C1942      C1943   1.415       .  A
C1942      C1947   1.406       .  A
C1942      C1956   1.444       .  S
C1943      C1948   1.500       .  S
C1944      C1945   1.401       .  A
C1944      H1963   1.084       .  S
C1945      C1957   1.442       .  S
C1946      C1947   1.405       .  A
C1947      H1962   1.084       .  S
C1948      C1949   1.406       .  A
C1949      C1950   1.404       .  A
C1949      H1964   1.084       .  S
C1950      C1951   1.415       .  A
C1950      C1954   1.444       .  S
C1952      C1953   1.402       .  A
C1952      H1965   1.082       .  S
C1953      C1955   1.444       .  S
C1954      N1958   1.157       .  T
C1955      N1959   1.157       .  T
C1956      N1961   1.157       .  T
C1957      N1960   1.157       .  T
C1966      C1967   1.420       .  A
C1966      C1971   1.404       .  A
C1966      C1980   1.444       .  S
C1967      C1968   1.408       .  A
C1967      C1972   1.501       .  S
C1968      C1969   1.398       .  A
C1968      H1987   1.084       .  S
C1969      C1970   1.407       .  A
C1969      C1981   1.444       .  S
C1970      C1971   1.401       .  A
C1971      H1986   1.085       .  S
C1972      C1973   1.409       .  A
C1972      C1977   1.417       .  A
C1973      C1974   1.400       .  A
C1973      H1988   1.084       .  S
C1974      C1975   1.409       .  A
C1974      C1978   1.444       .  S
C1975      C1976   1.402       .  A
C1976      C1977   1.405       .  A
C1976      H1989   1.084       .  S
C1977      C1979   1.444       .  S
C1978      N1982   1.157       .  T
C1979      N1983   1.157       .  T
C1980      N1985   1.158       .  T
C1981      N1984   1.157       .  T
C1990      C1991   1.409       .  A
C1990      C1995   1.399       .  A
C1990      C2004   1.445       .  S
C1991      C1992   1.403       .  A
C1991      C1996   1.486       .  S
C1992      C1993   1.404       .  A
C1992      H2011   1.084       .  S
C1993      C1994   1.415       .  A
C1993      C2005   1.443       .  S
C1994      C1995   1.407       .  A
C1995      H2010   1.084       .  S
C1996      C1997   1.400       .  A
C1996      C2001   1.411       .  A
C1997      C1998   1.396       .  A
C1997      H2012   1.085       .  S
C1998      C1999   1.415       .  A
C1998      C2002   1.444       .  S
C1999      C2000   1.407       .  A
C2000      C2001   1.405       .  A
C2000      H2013   1.084       .  S
C2001      C2003   1.444       .  S
C2002      N2006   1.157       .  T
C2003      N2007   1.157       .  T
C2004      N2009   1.157       .  T
C2005      N2008   1.157       .  T
C2014      C2015   1.411       .  A
C2014      C2019   1.401       .  A
C2014      C2028   1.444       .  S
C2015      C2016   1.406       .  A
C2015      C2020   1.494       .  S
C2016      C2017   1.404       .  A
C2016      H2035   1.084       .  S
C2017      C2018   1.413       .  A
C2017      C2029   1.443       .  S
C2018      C2019   1.405       .  A
C2019      H2034   1.080       .  S
C2020      C2021   1.407       .  A
C2020      C2025   1.413       .  A
C2021      C2022   1.402       .  A
C2021      H2036   1.084       .  S
C2022      C2023   1.411       .  A
C2022      C2026   1.444       .  S
C2023      C2024   1.404       .  A
C2024      C2025   1.402       .  A
C2024      H2037   1.084       .  S
C2025      C2027   1.443       .  S
C2026      N2030   1.157       .  T
C2027      N2031   1.157       .  T
C2028      N2033   1.157       .  T
C2029      N2032   1.157       .  T
C2038      C2039   1.412       .  A
C2038      C2043   1.401       .  A
C2038      C2052   1.444       .  S
C2039      C2040   1.404       .  A
C2039      C2044   1.491       .  S
C2040      C2041   1.403       .  A
C2040      H2059   1.084       .  S
C2041      C2042   1.414       .  A
C2041      C2053   1.443       .  S
C2042      C2043   1.405       .  A
C2043      H2058   1.085       .  S
C2044      C2045   1.404       .  A
C2044      C2049   1.412       .  A
C2045      C2046   1.401       .  A
C2045      H2060   1.085       .  S
C2046      C2047   1.412       .  A
C2046      C2050   1.443       .  S
C2047      C2048   1.405       .  A
C2048      C2049   1.403       .  A
C2048      H2061   1.085       .  S
C2049      C2051   1.444       .  S
C2050      N2054   1.157       .  T
C2051      N2055   1.157       .  T
C2052      N2057   1.157       .  T
C2062      C2063   1.417       .  A
C2062      C2067   1.411       .  A
C2062      C2734   1.491       .  S
C2063      C2064   1.402       .  A
C2063      C2686   1.492       .  S
C2064      C2065   1.398       .  A
C2064      H2069   1.084       .  S
C2065      C2066   1.414       .  A
C2065      C2657   1.482       .  S
C2066      C2067   1.411       .  A
C2066      C2705   1.496       .  S
C2067      H2068   1.084       .  S
C2070      C2071   1.419       .  A
C2070      C2075   1.400       .  A
C2070      C2566   1.480       .  S
C2071      C2072   1.410       .  A
C2071      C2638   1.501       .  S
C2072      C2073   1.405       .  A
C2072      H2077   1.083       .  S
C2073      C2074   1.413       .  A
C2073      C2614   1.481       .  S
C2074      C2075   1.397       .  A
C2074      C2590   1.486       .  S
C2075      H2076   1.085       .  S
In2078     O2085   2.254   1_455  S
C2079      C2585   1.486       .  S
C2079      O2087   1.261       .  A
O2081      C2088   1.264       .  A
C2082      C2681   1.487       .  S
C2082      O2089   1.260       .  A
C2082      O2083   1.264       .  A
C2084      C2662   1.478       .  S
C2084      O2086   1.264       .  A
C2084      O2090   1.262       .  A
C2088      C2561   1.482       .  S
C2091      C2092   1.425       .  A
C2091      C2096   1.410       .  A
C2091      C2542   1.494       .  S
C2092      C2093   1.407       .  A
C2092      C2489   1.499       .  S
C2093      C2094   1.402       .  A
C2094      C2095   1.410       .  A
C2094      C2470   1.490       .  S
C2095      C2096   1.402       .  A
C2095      C2513   1.484       .  S
C2096      H2097   1.085       .  S
In2099     O2104   2.245   1_445  S
In2099     O2106   2.250   1_445  S
C2100      C2494   1.484       .  S
C2100      O2106   1.264       .  A
O2102      C2109   1.267       .  A
C2103      C2422   1.482       .  S
C2103      O2110   1.263       .  A
C2105      C2441   1.486       .  S
C2105      O2107   1.266       .  A
C2109      C2465   1.478       .  S
C2112      C2113   1.414       .  A
C2112      C2117   1.401       .  A
C2112      C2446   1.484       .  S
C2113      C2114   1.410       .  A
C2113      C2393   1.493       .  S
C2114      C2115   1.409       .  A
C2114      H2119   1.084       .  S
C2115      C2116   1.417       .  A
C2115      C2374   1.493       .  S
C2116      C2117   1.404       .  A
C2116      C2417   1.490       .  S
C2117      H2118   1.084       .  S
C2120      C2121   1.413       .  A
C2120      C2125   1.404       .  A
C2120      C2345   1.485       .  S
C2121      C2122   1.399       .  A
C2121      C2278   1.481       .  S
C2122      C2123   1.400       .  A
C2122      H2127   1.085       .  S
C2123      C2124   1.417       .  A
C2123      C2302   1.486       .  S
C2124      C2125   1.407       .  A
C2124      C2321   1.487       .  S
C2125      H2126   1.084       .  S
C2128      C2129   1.420       .  A
C2128      C2133   1.404   1_665  A
C2128      C2729   1.492       .  S
C2129      C2130   1.409   1_665  A
C2129      C2350   1.497       .  S
C2130      H2135   1.084       .  S
C2131      C2132   1.417       .  A
C2131      C2326   1.495       .  S
C2132      C2710   1.489       .  S
C2133      H2134   1.085   1_545  S
In2136     O2141   2.244   1_455  S
C2137      C2297   1.485       .  S
C2137      O2143   1.264       .  A
C2137      O2145   1.260       .  A
O2138      C2146   1.258       .  A
O2139      C2146   1.265       .  A
C2140      C2225   1.483       .  S
C2140      O2141   1.263       .  A
C2142      C2249   1.476   1_565  S
C2142      O2144   1.265       .  A
C2146      C2273   1.486       .  S
C2149      C2150   1.414       .  A
C2149      C2154   1.402       .  A
C2149      C2254   1.483       .  S
C2150      C2151   1.408       .  A
C2150      C2206   1.494       .  S
C2151      C2152   1.410       .  A
C2151      H2156   1.084       .  S
C2152      C2153   1.416       .  A
C2152      C2182   1.495       .  S
C2153      C2154   1.402       .  A
C2153      C2230   1.485       .  S
C2154      H2155   1.085       .  S
C2157      C2158   1.420   1_556  A
C2157      C2398   1.497       .  S
C2158      C2201   1.501       .  S
C2159      C2160   1.410   1_455  A
C2159      H2164   1.084       .  S
C2160      C2161   1.420   1_554  A
C2160      C2177   1.498       .  S
C2161      C2162   1.406   1_655  A
C2161      C2369   1.499       .  S
C2162      H2163   1.084       .  S
C2165      C2166   1.414       .  A
C2165      C2633   1.492       .  S
C2166      C2537   1.483       .  S
C2167      C2168   1.406       .  A
C2167      H2172   1.084       .  S
C2168      C2169   1.421       .  A
C2168      C2518   1.497       .  S
C2169      C2170   1.407       .  A
C2169      C2609   1.487       .  S
C2170      H2171   1.084       .  S
C2173      C2174   1.412       .  A
C2173      C2178   1.404       .  A
C2173      C2187   1.444       .  S
C2174      C2179   1.492       .  S
C2175      C2176   1.402       .  A
C2175      H2194   1.085       .  S
C2176      C2188   1.444       .  S
C2177      C2178   1.407       .  A
C2178      H2193   1.084       .  S
C2179      C2184   1.412       .  A
C2180      C2181   1.404       .  A
C2180      H2195   1.085       .  S
C2181      C2182   1.414   1_565  A
C2181      C2185   1.444       .  S
C2183      C2184   1.403       .  A
C2183      H2196   1.083       .  S
C2184      C2186   1.443       .  S
C2185      N2189   1.157       .  T
C2186      N2190   1.157       .  T
C2187      N2192   1.157       .  T
C2188      N2191   1.157       .  T
C2197      C2198   1.413   1_565  A
C2197      C2202   1.406       .  A
C2197      C2211   1.444       .  S
C2198      C2203   1.494       .  S
C2199      C2200   1.403       .  A
C2199      H2218   1.085       .  S
C2200      C2201   1.415       .  A
C2200      C2212   1.443       .  S
C2202      H2217   1.084       .  S
C2203      C2208   1.412   1_545  A
C2204      C2205   1.403       .  A
C2204      H2219   1.085       .  S
C2205      C2209   1.444       .  S
C2206      C2207   1.406   1_545  A
C2207      C2208   1.403       .  A
C2207      H2220   1.082       .  S
C2208      C2210   1.443       .  S
C2209      N2213   1.157       .  T
C2210      N2214   1.157       .  T
C2211      N2216   1.157       .  T
C2212      N2215   1.157       .  T
C2221      C2222   1.413       .  A
C2221      C2226   1.401       .  A
C2221      C2235   1.444       .  S
C2222      C2227   1.494       .  S
C2223      C2224   1.402       .  A
C2223      H2242   1.085       .  S
C2224      C2236   1.444       .  S
C2225      C2226   1.405       .  A
C2226      H2241   1.085       .  S
C2227      C2232   1.414       .  A
C2228      C2229   1.402       .  A
C2228      H2243   1.084       .  S
C2229      C2230   1.408   1_565  A
C2229      C2233   1.443       .  S
C2231      C2232   1.402       .  A
C2231      H2244   1.085       .  S
C2232      C2234   1.444       .  S
C2233      N2237   1.157       .  T
C2234      N2238   1.157       .  T
C2235      N2240   1.157       .  T
C2236      N2239   1.157       .  T
C2245      C2246   1.414       .  A
C2245      C2250   1.399       .  A
C2245      C2259   1.444       .  S
C2246      C2251   1.491       .  S
C2247      C2248   1.403       .  A
C2247      H2266   1.085       .  S
C2248      C2249   1.413       .  A
C2248      C2260   1.445       .  S
C2250      H2265   1.085       .  S
C2251      C2256   1.414       .  A
C2252      C2253   1.399       .  A
C2252      H2267   1.084       .  S
C2253      C2254   1.409   1_565  A
C2253      C2257   1.444       .  S
C2255      C2256   1.404       .  A
C2255      H2268   1.084       .  S
C2256      C2258   1.444       .  S
C2257      N2261   1.157       .  T
C2258      N2262   1.157       .  T
C2259      N2264   1.157       .  T
C2260      N2263   1.158       .  T
C2269      C2270   1.410       .  A
C2269      C2274   1.404       .  A
C2269      C2283   1.444       .  S
C2270      C2271   1.399       .  A
C2270      C2275   1.484       .  S
C2271      C2272   1.399       .  A
C2271      H2290   1.085       .  S
C2272      C2273   1.418       .  A
C2272      C2284   1.444       .  S
C2273      C2274   1.406       .  A
C2274      H2289   1.084       .  S
C2275      C2276   1.405       .  A
C2275      C2280   1.410       .  A
C2276      C2277   1.403       .  A
C2276      H2291   1.085       .  S
C2277      C2278   1.411       .  A
C2277      C2281   1.443       .  S
C2278      C2279   1.402       .  A
C2279      C2280   1.397       .  A
C2279      H2292   1.085       .  S
C2280      C2282   1.444       .  S
C2281      N2285   1.157       .  T
C2282      N2286   1.157       .  T
C2283      N2288   1.157       .  T
C2284      N2287   1.157       .  T
C2293      C2294   1.412       .  A
C2293      C2298   1.400       .  A
C2293      C2307   1.444       .  S
C2294      C2295   1.403       .  A
C2294      C2299   1.489       .  S
C2295      C2296   1.400       .  A
C2295      H2314   1.085       .  S
C2296      C2297   1.417       .  A
C2296      C2308   1.444       .  S
C2297      C2298   1.405       .  A
C2298      H2313   1.085       .  S
C2299      C2300   1.405       .  A
C2299      C2304   1.412       .  A
C2300      C2301   1.402       .  A
C2300      H2315   1.085       .  S
C2301      C2302   1.411       .  A
C2301      C2305   1.443       .  S
C2302      C2303   1.403       .  A
C2303      C2304   1.398       .  A
C2303      H2316   1.085       .  S
C2304      C2306   1.444       .  S
C2305      N2309   1.157       .  T
C2306      N2310   1.157       .  T
C2307      N2312   1.157       .  T
C2308      N2311   1.157       .  T
C2317      C2318   1.412       .  A
C2317      C2322   1.400       .  A
C2317      C2331   1.444       .  S
C2318      C2319   1.404       .  A
C2318      C2323   1.489       .  S
C2319      C2320   1.401       .  A
C2319      H2338   1.085       .  S
C2320      C2321   1.412       .  A
C2320      C2332   1.443       .  S
C2321      C2322   1.404       .  A
C2322      H2337   1.085       .  S
C2323      C2324   1.403       .  A
C2323      C2328   1.411       .  A
C2324      C2325   1.401       .  A
C2324      H2339   1.085       .  S
C2325      C2326   1.414       .  A
C2325      C2329   1.443       .  S
C2326      C2327   1.407       .  A
C2327      C2328   1.401       .  A
C2327      H2340   1.084       .  S
C2328      C2330   1.444       .  S
C2330      N2334   1.157       .  T
C2331      N2336   1.157       .  T
C2332      N2335   1.157       .  T
C2341      C2342   1.414       .  A
C2341      C2346   1.403       .  A
C2341      C2355   1.444       .  S
C2342      C2343   1.405       .  A
C2342      C2347   1.492       .  S
C2343      C2344   1.402       .  A
C2343      H2362   1.084       .  S
C2344      C2345   1.410       .  A
C2344      C2356   1.443       .  S
C2345      C2346   1.403       .  A
C2346      H2361   1.085       .  S
C2347      C2348   1.403       .  A
C2347      C2352   1.413       .  A
C2348      C2349   1.401       .  A
C2348      H2363   1.085       .  S
C2349      C2350   1.415       .  A
C2349      C2353   1.444       .  S
C2350      C2351   1.407       .  A
C2351      C2352   1.403       .  A
C2351      H2364   1.084       .  S
C2352      C2354   1.444       .  S
C2353      N2357   1.157   1_655  T
C2354      N2358   1.157       .  T
C2355      N2360   1.157       .  T
C2356      N2359   1.157       .  T
C2365      C2366   1.415       .  A
C2365      C2370   1.406       .  A
C2365      C2379   1.444       .  S
C2366      C2371   1.500       .  S
C2367      C2368   1.405       .  A
C2367      H2386   1.084       .  S
C2368      C2380   1.443       .  S
C2369      C2370   1.406       .  A
C2370      H2385   1.084       .  S
C2371      C2376   1.416       .  A
C2372      C2373   1.405       .  A
C2372      H2387   1.084       .  S
C2373      C2377   1.444       .  S
C2374      C2375   1.402       .  A
C2375      C2376   1.403       .  A
C2375      H2388   1.084       .  S
C2376      C2378   1.443       .  S
C2377      N2381   1.157       .  T
C2378      N2382   1.157       .  T
C2379      N2384   1.157       .  T
C2380      N2383   1.157   1_556  T
C2389      C2390   1.413       .  A
C2389      C2394   1.403       .  A
C2389      C2403   1.444       .  S
C2390      C2395   1.494       .  S
C2391      C2392   1.404       .  A
C2391      H2410   1.085       .  S
C2392      C2404   1.443       .  S
C2393      C2394   1.405       .  A
C2394      H2409   1.082       .  S
C2395      C2400   1.413       .  A
C2396      C2397   1.403       .  A
C2396      H2411   1.085       .  S
C2397      C2401   1.444       .  S
C2398      C2399   1.406       .  A
C2399      C2400   1.404       .  A
C2399      H2412   1.084   1_556  S
C2400      C2402   1.444       .  S
C2402      N2406   1.157       .  T
C2403      N2408   1.157       .  T
C2404      N2407   1.157       .  T
C2413      C2414   1.412   1_565  A
C2413      C2418   1.398       .  A
C2413      C2427   1.444       .  S
C2414      C2419   1.488       .  S
C2415      C2416   1.402       .  A
C2415      H2434   1.085       .  S
C2416      C2417   1.413       .  A
C2416      C2428   1.443       .  S
C2418      H2433   1.085       .  S
C2419      C2424   1.411   1_545  A
C2420      C2421   1.400       .  A
C2420      H2435   1.085       .  S
C2421      C2422   1.415       .  A
C2421      C2425   1.444       .  S
C2423      C2424   1.402       .  A
C2423      H2436   1.084       .  S
C2424      C2426   1.444       .  S
C2425      N2429   1.157       .  T
C2426      N2430   1.157       .  T
C2427      N2432   1.157       .  T
C2428      N2431   1.157       .  T
C2437      C2438   1.412       .  A
C2437      C2442   1.399       .  A
C2437      C2451   1.444       .  S
C2438      C2443   1.493       .  S
C2439      C2440   1.403       .  A
C2439      H2458   1.085       .  S
C2440      C2452   1.443       .  S
C2441      C2442   1.407       .  A
C2442      H2457   1.085       .  S
C2443      C2448   1.415       .  A
C2444      C2445   1.401       .  A
C2444      H2459   1.084       .  S
C2445      C2449   1.444       .  S
C2446      C2447   1.401       .  A
C2447      C2448   1.401       .  A
C2447      H2460   1.084       .  S
C2448      C2450   1.444       .  S
C2449      N2453   1.157       .  T
C2450      N2454   1.157       .  T
C2451      N2456   1.157       .  T
C2452      N2455   1.157       .  T
C2461      C2462   1.414       .  A
C2461      C2466   1.398       .  A
C2461      C2475   1.445       .  S
C2462      C2467   1.491       .  S
C2463      C2464   1.403       .  A
C2463      H2482   1.085       .  S
C2464      C2465   1.411       .  A
C2464      C2476   1.444       .  S
C2466      H2481   1.085       .  S
C2467      C2472   1.414       .  A
C2468      C2469   1.400       .  A
C2468      H2483   1.085       .  S
C2469      C2470   1.412       .  A
C2469      C2473   1.443       .  S
C2471      C2472   1.401       .  A
C2471      H2484   1.083       .  S
C2472      C2474   1.444       .  S
C2473      N2477   1.157       .  T
C2474      N2478   1.157       .  T
C2475      N2480   1.157       .  T
C2476      N2479   1.157       .  T
C2485      C2486   1.413       .  A
C2485      C2490   1.404       .  A
C2485      C2499   1.444       .  S
C2486      C2491   1.491       .  S
C2487      C2488   1.399       .  A
C2487      H2506   1.085       .  S
C2488      C2500   1.445       .  S
C2489      C2490   1.407       .  A
C2490      H2505   1.084       .  S
C2491      C2496   1.412       .  A
C2492      C2493   1.403       .  A
C2492      H2507   1.085       .  S
C2493      C2494   1.414       .  A
C2493      C2497   1.444       .  S
C2495      C2496   1.401       .  A
C2495      H2508   1.085       .  S
C2496      C2498   1.444       .  S
C2497      N2501   1.157       .  T
C2498      N2502   1.157       .  T
C2499      N2504   1.157       .  T
C2500      N2503   1.157       .  T
C2509      C2514   1.403       .  A
C2509      C2523   1.444       .  S
C2510      C2511   1.407       .  A
C2510      C2515   1.497       .  S
C2511      C2512   1.400       .  A
C2511      H2530   1.084       .  S
C2512      C2513   1.408       .  A
C2512      C2524   1.444       .  S
C2514      H2529   1.085       .  S
C2515      C2520   1.414       .  A
C2516      C2517   1.403       .  A
C2516      H2531   1.084       .  S
C2517      C2521   1.442       .  S
C2518      C2519   1.406       .  A
C2519      C2520   1.403       .  A
C2519      H2532   1.084       .  S
C2520      C2522   1.445       .  S
C2521      N2525   1.157       .  T
C2522      N2526   1.157       .  T
C2523      N2528   1.157       .  T
C2524      N2527   1.157       .  T
C2533      C2534   1.417       .  A
C2533      C2538   1.400       .  A
C2533      C2547   1.444       .  S
C2534      C2539   1.498       .  S
C2535      C2536   1.403       .  A
C2535      H2554   1.084       .  S
C2536      C2548   1.443       .  S
C2537      C2538   1.400       .  A
C2538      H2553   1.085       .  S
C2539      C2544   1.415       .  A
C2540      C2541   1.405       .  A
C2540      H2555   1.084       .  S
C2541      C2545   1.443       .  S
C2542      C2543   1.405       .  A
C2543      C2544   1.399       .  A
C2543      H2556   1.085       .  S
C2544      C2546   1.445       .  S
C2545      N2549   1.157       .  T
C2546      N2550   1.157       .  T
C2547      N2552   1.157       .  T
C2548      N2551   1.157       .  T
C2557      C2558   1.409       .  A
C2557      C2562   1.401       .  A
C2557      C2571   1.444       .  S
C2559      C2560   1.398       .  A
C2559      H2578   1.086       .  S
C2560      C2572   1.445       .  S
C2561      C2562   1.405       .  A
C2562      H2577   1.085       .  S
C2563      C2568   1.410   1_455  A
C2564      C2565   1.402       .  A
C2564      H2579   1.084       .  S
C2565      C2566   1.409       .  A
C2565      C2569   1.443       .  S
C2567      C2568   1.396       .  A
C2567      H2580   1.085       .  S
C2568      C2570   1.444       .  S
C2569      N2573   1.157       .  T
C2570      N2574   1.157       .  T
C2571      N2576   1.157       .  T
C2572      N2575   1.157       .  T
C2581      C2582   1.415   1_655  A
C2581      C2586   1.404       .  A
C2581      C2595   1.444       .  S
C2582      C2587   1.497       .  S
C2583      C2584   1.399       .  A
C2583      H2602   1.084       .  S
C2584      C2585   1.414       .  A
C2584      C2596   1.444       .  S
C2586      H2601   1.084       .  S
C2587      C2592   1.416   1_455  A
C2588      C2589   1.400       .  A
C2588      H2603   1.084       .  S
C2589      C2590   1.410       .  A
C2589      C2593   1.442       .  S
C2591      C2592   1.401       .  A
C2591      H2604   1.085       .  S
C2592      C2594   1.444       .  S
C2593      N2597   1.157       .  T
C2594      N2598   1.157       .  T
C2595      N2600   1.157       .  T
C2596      N2599   1.157       .  T
C2605      C2610   1.402       .  A
C2605      C2619   1.444       .  S
C2606      C2607   1.407       .  A
C2606      C2611   1.495       .  S
C2607      C2608   1.398       .  A
C2607      H2626   1.084       .  S
C2608      C2609   1.410       .  A
C2608      C2620   1.443       .  S
C2610      H2625   1.085       .  S
C2611      C2616   1.415       .  A
C2612      C2613   1.403       .  A
C2612      H2627   1.084       .  S
C2613      C2617   1.443       .  S
C2614      C2615   1.397       .  A
C2615      C2616   1.396       .  A
C2615      H2628   1.080       .  S
C2616      C2618   1.444       .  S
C2617      N2621   1.157       .  T
C2618      N2622   1.157       .  T
C2619      N2624   1.157       .  T
C2620      N2623   1.157       .  T
C2629      C2630   1.415       .  A
C2629      C2634   1.406       .  A
C2629      C2643   1.444       .  S
C2630      C2635   1.500       .  S
C2631      C2632   1.401       .  A
C2631      H2650   1.084       .  S
C2632      C2644   1.442       .  S
C2633      C2634   1.405       .  A
C2634      H2649   1.084       .  S
C2635      C2636   1.406       .  A
C2636      C2637   1.404       .  A
C2636      H2651   1.084       .  S
C2637      C2638   1.415       .  A
C2637      C2641   1.444       .  S
C2639      C2640   1.402       .  A
C2639      H2652   1.082       .  S
C2640      C2642   1.444       .  S
C2641      N2645   1.157       .  T
C2642      N2646   1.157       .  T
C2643      N2648   1.157       .  T
C2644      N2647   1.157       .  T
C2653      C2654   1.420       .  A
C2653      C2658   1.404       .  A
C2653      C2667   1.444       .  S
C2654      C2655   1.408       .  A
C2654      C2659   1.501       .  S
C2655      C2656   1.398       .  A
C2655      H2674   1.084       .  S
C2656      C2657   1.407       .  A
C2656      C2668   1.444       .  S
C2657      C2658   1.401       .  A
C2658      H2673   1.085       .  S
C2659      C2660   1.409       .  A
C2659      C2664   1.417       .  A
C2660      C2661   1.400       .  A
C2660      H2675   1.084       .  S
C2661      C2662   1.409       .  A
C2661      C2665   1.444       .  S
C2662      C2663   1.402       .  A
C2663      C2664   1.405       .  A
C2663      H2676   1.084       .  S
C2664      C2666   1.444       .  S
C2665      N2669   1.157       .  T
C2666      N2670   1.157       .  T
C2667      N2672   1.158       .  T
C2668      N2671   1.157       .  T
C2677      C2678   1.409       .  A
C2677      C2682   1.399       .  A
C2677      C2691   1.445       .  S
C2678      C2679   1.403       .  A
C2678      C2683   1.486       .  S
C2679      C2680   1.404       .  A
C2679      H2698   1.084       .  S
C2680      C2681   1.415       .  A
C2680      C2692   1.443       .  S
C2681      C2682   1.407       .  A
C2682      H2697   1.084       .  S
C2683      C2684   1.400       .  A
C2683      C2688   1.411       .  A
C2684      C2685   1.396       .  A
C2684      H2699   1.085       .  S
C2685      C2686   1.415       .  A
C2685      C2689   1.444       .  S
C2686      C2687   1.407       .  A
C2687      C2688   1.405       .  A
C2687      H2700   1.084       .  S
C2688      C2690   1.444       .  S
C2689      N2693   1.157       .  T
C2690      N2694   1.157       .  T
C2691      N2696   1.157       .  T
C2692      N2695   1.157       .  T
C2701      C2702   1.411       .  A
C2701      C2706   1.401       .  A
C2701      C2715   1.444       .  S
C2702      C2703   1.406       .  A
C2702      C2707   1.494       .  S
C2703      C2704   1.404       .  A
C2703      H2722   1.084       .  S
C2704      C2705   1.413       .  A
C2704      C2716   1.443       .  S
C2705      C2706   1.405       .  A
C2706      H2721   1.080       .  S
C2707      C2708   1.407       .  A
C2707      C2712   1.413       .  A
C2708      C2709   1.402       .  A
C2708      H2723   1.084       .  S
C2709      C2710   1.411       .  A
C2709      C2713   1.444       .  S
C2710      C2711   1.404       .  A
C2711      C2712   1.402       .  A
C2711      H2724   1.084       .  S
C2712      C2714   1.443       .  S
C2713      N2717   1.157       .  T
C2714      N2718   1.157       .  T
C2715      N2720   1.157       .  T
C2716      N2719   1.157       .  T
C2725      C2726   1.412       .  A
C2725      C2730   1.401       .  A
C2725      C2739   1.444       .  S
C2726      C2727   1.404       .  A
C2726      C2731   1.491       .  S
C2727      C2728   1.403       .  A
C2727      H2746   1.084       .  S
C2728      C2729   1.414       .  A
C2728      C2740   1.443       .  S
C2729      C2730   1.405       .  A
C2730      H2745   1.085       .  S
C2731      C2732   1.404       .  A
C2731      C2736   1.412       .  A
C2732      C2733   1.401       .  A
C2732      H2747   1.085       .  S
C2733      C2734   1.412       .  A
C2733      C2737   1.443       .  S
C2734      C2735   1.405       .  A
C2735      C2736   1.403       .  A
C2735      H2748   1.085       .  S
C2736      C2738   1.444       .  S
C2737      N2741   1.157       .  T
C2738      N2742   1.157       .  T
C2739      N2744   1.157       .  T
