geometry optimzed in LAMMPS
_audit_creation_date              2020-12-01 
_audit_creation_method            'lammps2cif' 
_symmetry_space_group_name_H-M    'P1' 
_symmetry_Int_Tables_number       1 
_symmetry_cell_setting            triclinic 
loop_ 
_symmetry_equiv_pos_as_xyz 
  x,y,z 
_cell_length_a                    34.10080132 
_cell_length_b                    34.06950943441643 
_cell_length_c                    42.62408141164125 
_cell_angle_alpha                 90.08316509167324 
_cell_angle_beta                  89.55369197750451 
_cell_angle_gamma                 119.92370166579768 
loop_ 
_atom_site_label 
_atom_site_type_symbol 
_atom_site_fract_x 
_atom_site_fract_y 
_atom_site_fract_z 
_atom_site_charge 
In1        In  0.25064146  0.49829683  0.25249999     1.36900
C2          C  0.24381242  0.05455767  0.29296424     0.76900
O3          O  0.22106185  0.43451681  0.28082749    -0.61500
O4          O  0.29237214  0.47651206  0.28070567    -0.52400
C5          C  0.19085874  0.44481973  0.21015513     0.69600
O6          O  0.18237746  0.46776549  0.22954785    -0.47300
C7          C  0.31105449  0.05463281  0.21124818     0.74600
O8          O  0.20944738  0.02108154  0.28132241    -0.59200
O9          O  0.31639423  0.02549581  0.22597456    -0.49200
O10         O  0.28095263  0.05858324  0.28415385    -0.55600
C11         C  0.25850729  0.44025893  0.29004367     0.84500
O12         O  0.22984561  0.44965818  0.21273778    -0.57500
O13         O  0.27480659  0.05450093  0.21771914    -0.60800
In14       In  0.25210741  0.25015253  0.41884866     1.36900
C15         C  0.25886128  0.31181144  0.37777146     0.76900
O16         O  0.28196999  0.22490616  0.38297110    -0.61500
O17         O  0.21289480  0.18224586  0.39500554    -0.52400
C18         C  0.31394555  0.25478541  0.45891426     0.69600
O19         O  0.31922124  0.28827997  0.44302766    -0.47300
C20         C  0.19052895  0.24903779  0.45816124     0.74300
O21         O  0.29126165  0.31784878  0.39505696    -0.59200
O22         O  0.18405800  0.21451708  0.44293980    -0.49200
O23         O  0.22349054  0.27391852  0.38126004    -0.55600
C24         C  0.24596674  0.18816306  0.37804046     0.84500
O25         O  0.27672208  0.21911713  0.45419568    -0.57500
O26         O  0.22889013  0.28331184  0.45376897    -0.60800
In27       In  0.00100041  0.25061413  0.08598541     1.36900
C28         C  0.44106533  0.25360443  0.04792469     0.76900
O29         O  0.05095607  0.27950926  0.04666986    -0.61500
O30         O  0.03481563  0.21495003  0.06427104    -0.52400
C31         C  0.06187307  0.31316664  0.12364783     0.69600
O32         O  0.03391097  0.31942003  0.10829196    -0.47300
C33         C  0.44332652  0.18967372  0.12670669     0.74300
O34         O  0.46860236  0.28742948  0.06378081    -0.59200
O35         O  0.46502311  0.18034917  0.10674892    -0.49200
O36         O  0.44502006  0.21901331  0.05124275    -0.55600
C37         C  0.05751211  0.24628529  0.04483165     0.84500
O38         O  0.05758803  0.27444885  0.12027045    -0.57500
O39         O  0.45278415  0.23041817  0.12622159    -0.60800
C40         C  0.09015670  0.24546943  0.02208988    -0.06800
C41         C  0.12415724  0.28701357  0.00992005    -0.17900
C42         C  0.15648278  0.28924989  0.48854367     0.10400
C43         C  0.15608017  0.24902773  0.47955241    -0.06700
C44         C  0.12194739  0.20744238  0.49157209    -0.17900
C45         C  0.08882632  0.20513377  0.01230976     0.10400
S46         S  0.19592348  0.34439417  0.47289216    -0.32900
S47         S  0.04518894  0.14958365  0.02441634    -0.32900
H48         H  0.00972062  0.15860926  0.01925567     0.28500
H49         H  0.19109692  0.32938013  0.44162924     0.28400
H50         H  0.12546843  0.31823931  0.01691513     0.19000
H51         H  0.12084578  0.17629630  0.48465066     0.19000
C52         C  0.40740025  0.25443845  0.02669395    -0.06800
C53         C  0.41905875  0.29423335  0.00992089    -0.17900
C54         C  0.39023481  0.29547131  0.48714171     0.10400
C55         C  0.34769425  0.25631273  0.48155470    -0.06700
C56         C  0.33595674  0.21686683  0.49893187    -0.17900
C57         C  0.36488762  0.21557926  0.02140625     0.10400
S58         S  0.41076866  0.34760447  0.46559153    -0.32900
S59         S  0.34448529  0.16373227  0.04342396    -0.32900
H60         H  0.36290993  0.18524340  0.07214361     0.28500
H61         H  0.40370016  0.32639024  0.43616958     0.28400
H62         H  0.45173556  0.32414588  0.01366258     0.19000
H63         H  0.30347726  0.18663693  0.49540782     0.19000
C64         C  0.09639854  0.34823326  0.14422011    -0.06800
C65         C  0.08723846  0.38028925  0.15800941    -0.17900
C66         C  0.11773384  0.41316135  0.17870805     0.10400
C67         C  0.15812536  0.41351385  0.18672223    -0.06700
C68         C  0.16763464  0.38203078  0.17226926    -0.17900
C69         C  0.13788575  0.35017109  0.15086494     0.10400
S70         S  0.10330006  0.45401208  0.19328941    -0.32900
S71         S  0.15600408  0.31435361  0.13208740    -0.32900
H72         H  0.14033218  0.31718400  0.10218715     0.28500
H73         H  0.14653719  0.49133535  0.18726710     0.28400
H74         H  0.05594534  0.37972695  0.15268374     0.19000
H75         H  0.19874146  0.38219185  0.17755647     0.19000
C76         C  0.34481468  0.08773794  0.18901455    -0.06800
C77         C  0.34756743  0.13004077  0.18641436    -0.17900
C78         C  0.37881541  0.16359463  0.16634327     0.10400
C79         C  0.40929332  0.15546121  0.14851268    -0.06700
C80         C  0.40658319  0.11300798  0.15118449    -0.17900
C81         C  0.37439712  0.07898643  0.17078760     0.10400
S82         S  0.37676842  0.21536364  0.16438174    -0.32900
S83         S  0.37136086  0.02464884  0.17015070    -0.32900
H84         H  0.32376309  0.99951136  0.17042799     0.28500
H85         H  0.37207449  0.21354556  0.13154624     0.28400
H86         H  0.32497149  0.13714125  0.20017598     0.19000
H87         H  0.42916059  0.10585553  0.13747420     0.19000
C88         C  0.24316400  0.15462847  0.35460722    -0.06800
C89         C  0.21076351  0.10865732  0.35881339    -0.17900
C90         C  0.20992869  0.07513675  0.33917829     0.10400
C91         C  0.24176449  0.08768357  0.31440624    -0.06700
C92         C  0.27323960  0.13367403  0.30969388    -0.17900
C93         C  0.27367608  0.16716341  0.32892664     0.10400
S94         S  0.16950184  0.01696331  0.34826028    -0.32900
S95         S  0.31269939  0.22526094  0.31843870    -0.32900
H96         H  0.28171285  0.24035973  0.32438789     0.28500
H97         H  0.19892085  0.50028135  0.34137021     0.28400
H98         H  0.18708472  0.09850541  0.37831322     0.19000
H99         H  0.29713012  0.14375417  0.29030560     0.19000
C100        C  0.26151533  0.34573688  0.35497736    -0.06800
C101        C  0.23441185  0.33006991  0.32813213    -0.17900
C102        C  0.23470810  0.36014152  0.30574968     0.10400
C103        C  0.26191194  0.40725058  0.31047246    -0.06700
C104        C  0.29018306  0.42305433  0.33669387    -0.17900
C105        C  0.28981403  0.39293002  0.35919373     0.10400
S106        S  0.20084286  0.33620806  0.27115387    -0.32900
S107        S  0.32353471  0.41704289  0.39374555    -0.32900
H108        H  0.28920629  0.38798147  0.41475037     0.28500
H109        H  0.23043948  0.37090375  0.25063224     0.28400
H110        H  0.21322545  0.29399305  0.32428445     0.19000
H111        H  0.31088303  0.45917817  0.34055295     0.19000
In112      In  0.25064152  0.49829691  0.75249992     1.36900
C113        C  0.24381230  0.05455777  0.79296425     0.76900
O114        O  0.22106185  0.43451683  0.78082738    -0.61500
O115        O  0.29237214  0.47651220  0.78070569    -0.52400
C116        C  0.19085880  0.44481978  0.71015505     0.69600
O117        O  0.18237745  0.46776539  0.72954781    -0.47300
C118        C  0.31105446  0.05463290  0.71124823     0.74600
O119        O  0.20944716  0.02108158  0.78132250    -0.59200
O120        O  0.31639427  0.02549602  0.72597469    -0.49200
O121        O  0.28095257  0.05858336  0.78415383    -0.55600
C122        C  0.25850730  0.44025903  0.79004365     0.84500
O123        O  0.22984572  0.44965837  0.71273772    -0.57500
O124        O  0.27480654  0.05450096  0.71771917    -0.60800
In125      In  0.25210744  0.25015260  0.91884874     1.36900
C126        C  0.25886123  0.31181139  0.87777141     0.76900
O127        O  0.28196995  0.22490622  0.88297120    -0.61500
O128        O  0.21289479  0.18224595  0.89500568    -0.52400
C129        C  0.31394565  0.25478542  0.95891430     0.69600
O130        O  0.31922143  0.28828007  0.94302772    -0.47300
C131        C  0.19052889  0.24903784  0.95816126     0.74300
O132        O  0.29126153  0.31784891  0.89505705    -0.59200
O133        O  0.18405796  0.21451704  0.94293992    -0.49200
O134        O  0.22349056  0.27391837  0.88125998    -0.55600
C135        C  0.24596668  0.18816311  0.87804054     0.84500
O136        O  0.27672209  0.21911706  0.95419581    -0.57500
O137        O  0.22889007  0.28331188  0.95376896    -0.60800
In138      In  0.00100044  0.25061414  0.58598539     1.36900
C139        C  0.44106535  0.25360440  0.54792457     0.76900
O140        O  0.05095610  0.27950929  0.54666987    -0.61500
O141        O  0.03481566  0.21495005  0.56427102    -0.52400
C142        C  0.06187301  0.31316658  0.62364791     0.69600
O143        O  0.03391110  0.31942000  0.60829188    -0.47300
C144        C  0.44332639  0.18967375  0.62670663     0.74300
O145        O  0.46860222  0.28742929  0.56378080    -0.59200
O146        O  0.46502310  0.18034913  0.60674904    -0.49200
O147        O  0.44502007  0.21901327  0.55124264    -0.55600
C148        C  0.05751209  0.24628528  0.54483163     0.84500
O149        O  0.05758788  0.27444879  0.62027055    -0.57500
O150        O  0.45278418  0.23041827  0.62622146    -0.60800
C151        C  0.09015677  0.24546948  0.52208996    -0.06800
C152        C  0.12415721  0.28701348  0.50992006    -0.17900
C153        C  0.15648271  0.28925003  0.98854355     0.10400
C154        C  0.15608023  0.24902800  0.97955244    -0.06700
C155        C  0.12194756  0.20744258  0.99157214    -0.17900
C156        C  0.08882613  0.20513368  0.51230962     0.10400
S157        S  0.19592327  0.34439422  0.97289190    -0.32900
S158        S  0.04518879  0.14958364  0.52441628    -0.32900
H159        H  0.00972074  0.15860959  0.51925550     0.28500
H160        H  0.19109652  0.32937977  0.94162908     0.28400
H161        H  0.12546889  0.31823947  0.51691562     0.19000
H162        H  0.12084631  0.17629698  0.98465089     0.19000
C163        C  0.40740025  0.25443853  0.52669395    -0.06800
C164        C  0.41905868  0.29423333  0.50992076    -0.17900
C165        C  0.39023491  0.29547144  0.98714190     0.10400
C166        C  0.34769434  0.25631271  0.98155473    -0.06700
C167        C  0.33595673  0.21686672  0.99893182    -0.17900
C168        C  0.36488772  0.21557938  0.52140626     0.10400
S169        S  0.41076879  0.34760494  0.96559213    -0.32900
S170        S  0.34448508  0.16373226  0.54342399    -0.32900
H171        H  0.36290997  0.18524337  0.57214359     0.28500
H172        H  0.40370051  0.32639150  0.93616989     0.28400
H173        H  0.45173573  0.32414567  0.51366203     0.19000
H174        H  0.30347690  0.18663675  0.99540782     0.19000
C175        C  0.09639857  0.34823329  0.64422010    -0.06800
C176        C  0.08723857  0.38028933  0.65800932    -0.17900
C177        C  0.11773397  0.41316141  0.67870791     0.10400
C178        C  0.15812548  0.41351376  0.68672223    -0.06700
C179        C  0.16763476  0.38203072  0.67226930    -0.17900
C180        C  0.13788578  0.35017098  0.65086507     0.10400
S181        S  0.10330020  0.45401223  0.69328920    -0.32900
S182        S  0.15600384  0.31435323  0.63208770    -0.32900
H183        H  0.14033224  0.31718393  0.60218742     0.28500
H184        H  0.14653747  0.49133532  0.68726700     0.28400
H185        H  0.05594558  0.37972733  0.65268350     0.19000
H186        H  0.19874167  0.38219137  0.67755684     0.19000
C187        C  0.34481470  0.08773801  0.68901466    -0.06800
C188        C  0.34756745  0.13004088  0.68641444    -0.17900
C189        C  0.37881541  0.16359471  0.66634330     0.10400
C190        C  0.40929321  0.15546129  0.64851274    -0.06700
C191        C  0.40658300  0.11300791  0.65118453    -0.17900
C192        C  0.37439688  0.07898636  0.67078769     0.10400
S193        S  0.37676844  0.21536372  0.66438175    -0.32900
S194        S  0.37136027  0.02464858  0.67015068    -0.32900
H195        H  0.32376247  0.99951151  0.67042812     0.28500
H196        H  0.37207431  0.21354553  0.63154627     0.28400
H197        H  0.32497157  0.13714135  0.70017582     0.19000
H198        H  0.42915983  0.10585528  0.63747419     0.19000
C199        C  0.24316395  0.15462852  0.85460721    -0.06800
C200        C  0.21076349  0.10865730  0.85881349    -0.17900
C201        C  0.20992869  0.07513673  0.83917843     0.10400
C202        C  0.24176426  0.08768359  0.81440633    -0.06700
C203        C  0.27323937  0.13367411  0.80969392    -0.17900
C204        C  0.27367582  0.16716349  0.82892661     0.10400
S205        S  0.16950206  0.01696333  0.84826052    -0.32900
S206        S  0.31269881  0.22526104  0.81843850    -0.32900
H207        H  0.28171235  0.24035989  0.82438782     0.28500
H208        H  0.19891936  0.50028095  0.84136970     0.28400
H209        H  0.18708462  0.09850543  0.87831306     0.19000
H210        H  0.29712960  0.14375424  0.79030582     0.19000
C211        C  0.26151534  0.34573691  0.85497724    -0.06800
C212        C  0.23441203  0.33007005  0.82813189    -0.17900
C213        C  0.23470819  0.36014167  0.80574952     0.10400
C214        C  0.26191199  0.40725065  0.81047241    -0.06700
C215        C  0.29018291  0.42305441  0.83669395    -0.17900
C216        C  0.28981378  0.39293004  0.85919382     0.10400
S217        S  0.20084351  0.33620861  0.77115344    -0.32900
S218        S  0.32353382  0.41704264  0.89374594    -0.32900
H219        H  0.28920506  0.38798077  0.91475039     0.28500
H220        H  0.23044073  0.37090470  0.75063230     0.28400
H221        H  0.21322556  0.29399320  0.82428421     0.19000
H222        H  0.31088255  0.45917813  0.84055309     0.19000
In223      In  0.25064193  0.99829715  0.25250000     1.36900
C224        C  0.24381195  0.55455737  0.29296420     0.76900
O225        O  0.22106216  0.93451715  0.28082741    -0.61500
O226        O  0.29237256  0.97651228  0.28070570    -0.52400
C227        C  0.19085918  0.94482009  0.21015515     0.69600
O228        O  0.18237809  0.96776591  0.22954790    -0.47300
C229        C  0.31105403  0.55463245  0.21124815     0.74600
O230        O  0.20944680  0.52108118  0.28132248    -0.59200
O231        O  0.31639378  0.52549546  0.22597458    -0.49200
O232        O  0.28095221  0.55858294  0.28415382    -0.55600
C233        C  0.25850758  0.94025928  0.29004374     0.84500
O234        O  0.22984599  0.94965851  0.21273777    -0.57500
O235        O  0.27480616  0.55450061  0.21771914    -0.60800
In236      In  0.25210719  0.75015234  0.41884859     1.36900
C237        C  0.25886124  0.81181128  0.37777135     0.76900
O238        O  0.28196977  0.72490579  0.38297107    -0.61500
O239        O  0.21289438  0.68224564  0.39500539    -0.52400
C240        C  0.31394536  0.75478506  0.45891419     0.69600
O241        O  0.31922103  0.78827966  0.44302766    -0.47300
C242        C  0.19052876  0.74903782  0.45816121     0.74300
O243        O  0.29126164  0.81784860  0.39505688    -0.59200
O244        O  0.18405770  0.71451698  0.44293989    -0.49200
O245        O  0.22349040  0.77391833  0.38125982    -0.55600
C246        C  0.24596635  0.68816280  0.37804031     0.84500
O247        O  0.27672180  0.71911682  0.45419565    -0.57500
O248        O  0.22889003  0.78331170  0.45376890    -0.60800
In249      In  0.00100065  0.75061447  0.08598549     1.36900
C250        C  0.44106504  0.75360395  0.04792452     0.76900
O251        O  0.05095643  0.77950978  0.04666997    -0.61500
O252        O  0.03481568  0.71495024  0.06427097    -0.52400
C253        C  0.06187324  0.81316694  0.12364799     0.69600
O254        O  0.03391125  0.81942035  0.10829202    -0.47300
C255        C  0.44332594  0.68967331  0.12670656     0.74300
O256        O  0.46860178  0.78742887  0.06378088    -0.59200
O257        O  0.46502258  0.68034867  0.10674896    -0.49200
O258        O  0.44501974  0.71901276  0.05124250    -0.55600
C259        C  0.05751236  0.74628571  0.04483174     0.84500
O260        O  0.05758828  0.77444921  0.12027052    -0.57500
O261        O  0.45278382  0.73041783  0.12622141    -0.60800
C262        C  0.09015679  0.74546977  0.02208994    -0.06800
C263        C  0.12415759  0.78701389  0.00992022    -0.17900
C264        C  0.15648293  0.78925027  0.48854370     0.10400
C265        C  0.15608025  0.74902809  0.47955254    -0.06700
C266        C  0.12194734  0.70744268  0.49157216    -0.17900
C267        C  0.08882597  0.70513398  0.01230960     0.10400
S268        S  0.19592371  0.84439431  0.47289203    -0.32900
S269        S  0.04518843  0.64958395  0.02441609    -0.32900
H270        H  0.00972043  0.65861003  0.01925536     0.28500
H271        H  0.19109672  0.82937976  0.44162922     0.28400
H272        H  0.12546901  0.81823974  0.01691534     0.19000
H273        H  0.12084591  0.67629703  0.48465109     0.19000
C274        C  0.40739995  0.75443805  0.02669385    -0.06800
C275        C  0.41905822  0.79423293  0.00992089    -0.17900
C276        C  0.39023449  0.79547101  0.48714183     0.10400
C277        C  0.34769400  0.75631232  0.48155467    -0.06700
C278        C  0.33595667  0.71686629  0.49893160    -0.17900
C279        C  0.36488734  0.71557887  0.02140619     0.10400
S280        S  0.41076818  0.84760453  0.46559213    -0.32900
S281        S  0.34448515  0.66373202  0.04342423    -0.32900
H282        H  0.36291028  0.68524367  0.07214365     0.28500
H283        H  0.40370005  0.82639091  0.43616997     0.28400
H284        H  0.45173511  0.82414556  0.01366240     0.19000
H285        H  0.30347691  0.68663621  0.49540752     0.19000
C286        C  0.09639880  0.84823367  0.14422021    -0.06800
C287        C  0.08723876  0.88028963  0.15800951    -0.17900
C288        C  0.11773422  0.91316174  0.17870807     0.10400
C289        C  0.15812572  0.91351418  0.18672230    -0.06700
C290        C  0.16763500  0.88203116  0.17226928    -0.17900
C291        C  0.13788603  0.85017151  0.15086498     0.10400
S292        S  0.10330039  0.95401242  0.19328943    -0.32900
S293        S  0.15600417  0.81435395  0.13208728    -0.32900
H294        H  0.14033237  0.81718478  0.10218709     0.28500
H295        H  0.14653755  0.99133561  0.18726710     0.28400
H296        H  0.05594565  0.87972740  0.15268381     0.19000
H297        H  0.19874183  0.88219222  0.17755639     0.19000
C298        C  0.34481423  0.58773755  0.18901447    -0.06800
C299        C  0.34756685  0.63004039  0.18641415    -0.17900
C300        C  0.37881493  0.66359428  0.16634309     0.10400
C301        C  0.40929272  0.65546087  0.14851254    -0.06700
C302        C  0.40658273  0.61300760  0.15118438    -0.17900
C303        C  0.37439664  0.57898607  0.17078756     0.10400
S304        S  0.37676791  0.71536327  0.16438173    -0.32900
S305        S  0.37136054  0.52464853  0.17015069    -0.32900
H306        H  0.32376277  0.49951073  0.17042804     0.28500
H307        H  0.37207389  0.71354575  0.13154625     0.28400
H308        H  0.32497151  0.63714113  0.20017587     0.19000
H309        H  0.42915987  0.60585515  0.13747429     0.19000
C310        C  0.24316366  0.65462821  0.35460700    -0.06800
C311        C  0.21076316  0.60865713  0.35881325    -0.17900
C312        C  0.20992846  0.57513655  0.33917818     0.10400
C313        C  0.24176400  0.58768332  0.31440607    -0.06700
C314        C  0.27323909  0.63367374  0.30969370    -0.17900
C315        C  0.27367553  0.66716310  0.32892642     0.10400
S316        S  0.16950169  0.51696306  0.34826025    -0.32900
S317        S  0.31269851  0.72526076  0.31843850    -0.32900
H318        H  0.28171199  0.74035951  0.32438794     0.28500
H319        H  0.19892110  0.00028180  0.34137007     0.28400
H320        H  0.18708473  0.59850555  0.37831282     0.19000
H321        H  0.29712941  0.64375393  0.29030535     0.19000
C322        C  0.26151546  0.84573677  0.35497715    -0.06800
C323        C  0.23441194  0.83007004  0.32813187    -0.17900
C324        C  0.23470833  0.86014175  0.30574946     0.10400
C325        C  0.26191219  0.90725076  0.31047238    -0.06700
C326        C  0.29018326  0.92305429  0.33669390    -0.17900
C327        C  0.28981406  0.89292984  0.35919373     0.10400
S328        S  0.20084320  0.83620844  0.27115366    -0.32900
S329        S  0.32353454  0.91704245  0.39374571    -0.32900
H330        H  0.28920561  0.88798070  0.41475009     0.28500
H331        H  0.23044010  0.87090434  0.25063229     0.28400
H332        H  0.21322564  0.79399320  0.32428408     0.19000
H333        H  0.31088322  0.95917801  0.34055315     0.19000
In334      In  0.25064181  0.99829721  0.75250002     1.36900
C335        C  0.24381201  0.55455750  0.79296412     0.76900
O336        O  0.22106212  0.93451727  0.78082745    -0.61500
O337        O  0.29237246  0.97651234  0.78070573    -0.52400
C338        C  0.19085915  0.94482016  0.71015514     0.69600
O339        O  0.18237783  0.96776591  0.72954785    -0.47300
C340        C  0.31105407  0.55463242  0.71124805     0.74600
O341        O  0.20944686  0.52108142  0.78132224    -0.59200
O342        O  0.31639388  0.52549556  0.72597459    -0.49200
O343        O  0.28095230  0.55858298  0.78415382    -0.55600
C344        C  0.25850752  0.94025935  0.79004377     0.84500
O345        O  0.22984600  0.94965862  0.71273779    -0.57500
O346        O  0.27480616  0.55450051  0.71771905    -0.60800
In347      In  0.25210717  0.75015239  0.91884860     1.36900
C348        C  0.25886117  0.81181133  0.87777139     0.76900
O349        O  0.28196969  0.72490568  0.88297127    -0.61500
O350        O  0.21289450  0.68224580  0.89500525    -0.52400
C351        C  0.31394517  0.75478514  0.95891432     0.69600
O352        O  0.31922097  0.78827965  0.94302761    -0.47300
C353        C  0.19052886  0.74903784  0.95816123     0.74300
O354        O  0.29126157  0.81784858  0.89505686    -0.59200
O355        O  0.18405774  0.71451704  0.94293984    -0.49200
O356        O  0.22349037  0.77391842  0.88125996    -0.55600
C357        C  0.24596641  0.68816274  0.87804036     0.84500
O358        O  0.27672169  0.71911685  0.95419573    -0.57500
O359        O  0.22889010  0.78331179  0.95376887    -0.60800
In360      In  0.00100072  0.75061451  0.58598546     1.36900
C361        C  0.44106510  0.75360396  0.54792452     0.76900
O362        O  0.05095653  0.77950985  0.54667001    -0.61500
O363        O  0.03481575  0.71495026  0.56427105    -0.52400
C364        C  0.06187337  0.81316697  0.62364797     0.69600
O365        O  0.03391135  0.81942040  0.60829205    -0.47300
C366        C  0.44332609  0.68967336  0.62670656     0.74300
O367        O  0.46860184  0.78742890  0.56378088    -0.59200
O368        O  0.46502262  0.68034868  0.60674887    -0.49200
O369        O  0.44501984  0.71901280  0.55124253    -0.55600
C370        C  0.05751236  0.74628572  0.54483177     0.84500
O371        O  0.05758834  0.77444920  0.62027048    -0.57500
O372        O  0.45278396  0.73041791  0.62622152    -0.60800
C373        C  0.09015691  0.74547001  0.52209003    -0.06800
C374        C  0.12415758  0.78701404  0.50992017    -0.17900
C375        C  0.15648303  0.78925021  0.98854372     0.10400
C376        C  0.15608021  0.74902806  0.97955245    -0.06700
C377        C  0.12194715  0.70744259  0.99157197    -0.17900
C378        C  0.08882621  0.70513415  0.51230981     0.10400
S379        S  0.19592400  0.84439435  0.97289218    -0.32900
S380        S  0.04518840  0.64958404  0.52441626    -0.32900
H381        H  0.00972043  0.65861015  0.51925546     0.28500
H382        H  0.19109665  0.82937966  0.94162938     0.28400
H383        H  0.12546944  0.81824042  0.51691554     0.19000
H384        H  0.12084564  0.67629692  0.98465067     0.19000
C385        C  0.40739992  0.75443804  0.52669388    -0.06800
C386        C  0.41905828  0.79423293  0.50992083    -0.17900
C387        C  0.39023441  0.79547101  0.98714191     0.10400
C388        C  0.34769387  0.75631236  0.98155472    -0.06700
C389        C  0.33595646  0.71686637  0.99893171    -0.17900
C390        C  0.36488752  0.71557872  0.52140600     0.10400
S391        S  0.41076818  0.84760450  0.96559217    -0.32900
S392        S  0.34448522  0.66373165  0.54342371    -0.32900
H393        H  0.36290982  0.68524265  0.57214339     0.28500
H394        H  0.40370002  0.82639081  0.93617003     0.28400
H395        H  0.45173499  0.82414560  0.51366252     0.19000
H396        H  0.30347652  0.68663643  0.99540779     0.19000
C397        C  0.09639911  0.84823369  0.64422018    -0.06800
C398        C  0.08723899  0.88028972  0.65800944    -0.17900
C399        C  0.11773442  0.91316182  0.67870809     0.10400
C400        C  0.15812584  0.91351429  0.68672227    -0.06700
C401        C  0.16763516  0.88203121  0.67226930    -0.17900
C402        C  0.13788626  0.85017151  0.65086498     0.10400
S403        S  0.10330044  0.95401247  0.69328940    -0.32900
S404        S  0.15600447  0.81435399  0.63208740    -0.32900
H405        H  0.14033264  0.81718439  0.60218712     0.28500
H406        H  0.14653754  0.99133580  0.68726711     0.28400
H407        H  0.05594633  0.87972745  0.65268379     0.19000
H408        H  0.19874194  0.88219228  0.67755650     0.19000
C409        C  0.34481440  0.58773762  0.68901437    -0.06800
C410        C  0.34756701  0.63004049  0.68641406    -0.17900
C411        C  0.37881503  0.66359433  0.66634295     0.10400
C412        C  0.40929282  0.65546084  0.64851244    -0.06700
C413        C  0.40658282  0.61300759  0.65118430    -0.17900
C414        C  0.37439677  0.57898607  0.67078744     0.10400
S415        S  0.37676782  0.71536320  0.66438127    -0.32900
S416        S  0.37136062  0.52464855  0.67015066    -0.32900
H417        H  0.32376285  0.49951081  0.67042803     0.28500
H418        H  0.37207407  0.71354534  0.63154576     0.28400
H419        H  0.32497147  0.63714103  0.70017559     0.19000
H420        H  0.42915975  0.60585492  0.63747380     0.19000
C421        C  0.24316353  0.65462812  0.85460710    -0.06800
C422        C  0.21076272  0.60865705  0.85881305    -0.17900
C423        C  0.20992791  0.57513662  0.83917793     0.10400
C424        C  0.24176408  0.58768347  0.81440610    -0.06700
C425        C  0.27323957  0.63367388  0.80969402    -0.17900
C426        C  0.27367604  0.66716317  0.82892679     0.10400
S427        S  0.16950058  0.51696320  0.84825952    -0.32900
S428        S  0.31269942  0.72526089  0.81843914    -0.32900
H429        H  0.28171269  0.74035957  0.82438797     0.28500
H430        H  0.19892145  0.00028202  0.84137011     0.28400
H431        H  0.18708308  0.59850506  0.87831247     0.19000
H432        H  0.29713030  0.64375402  0.79030581     0.19000
C433        C  0.26151540  0.84573680  0.85497716    -0.06800
C434        C  0.23441166  0.83007009  0.82813199    -0.17900
C435        C  0.23470799  0.86014186  0.80574963     0.10400
C436        C  0.26191216  0.90725080  0.81047235    -0.06700
C437        C  0.29018327  0.92305434  0.83669378    -0.17900
C438        C  0.28981405  0.89292989  0.85919365     0.10400
S439        S  0.20084289  0.83620871  0.77115381    -0.32900
S440        S  0.32353492  0.91704252  0.89374549    -0.32900
H441        H  0.28920620  0.88798116  0.91475014     0.28500
H442        H  0.23043979  0.87090445  0.75063232     0.28400
H443        H  0.21322499  0.79399330  0.82428427     0.19000
H444        H  0.31088314  0.95917802  0.84055293     0.19000
In445      In  0.75064189  0.49829716  0.25250006     1.36900
C446        C  0.74381206  0.05455751  0.29296408     0.76900
O447        O  0.72106219  0.43451717  0.28082744    -0.61500
O448        O  0.79237254  0.47651226  0.28070572    -0.52400
C449        C  0.69085918  0.44482010  0.21015518     0.69600
O450        O  0.68237793  0.46776590  0.22954790    -0.47300
C451        C  0.81105394  0.05463243  0.21124801     0.74600
O452        O  0.70944697  0.02108137  0.28132225    -0.59200
O453        O  0.81639383  0.02549562  0.22597452    -0.49200
O454        O  0.78095229  0.05858285  0.28415387    -0.55600
C455        C  0.75850760  0.44025926  0.29004375     0.84500
O456        O  0.72984605  0.44965856  0.21273779    -0.57500
O457        O  0.77480605  0.05450053  0.21771905    -0.60800
In458      In  0.75210723  0.25015233  0.41884860     1.36900
C459        C  0.75886126  0.31181129  0.37777141     0.76900
O460        O  0.78196973  0.22490565  0.38297120    -0.61500
O461        O  0.71289441  0.18224568  0.39500537    -0.52400
C462        C  0.81394536  0.25478510  0.45891426     0.69600
O463        O  0.81922104  0.28827961  0.44302765    -0.47300
C464        C  0.69052896  0.24903784  0.45816125     0.74300
O465        O  0.79126165  0.31784856  0.39505686    -0.59200
O466        O  0.68405784  0.21451702  0.44293985    -0.49200
O467        O  0.72349046  0.27391836  0.38125995    -0.55600
C468        C  0.74596634  0.18816272  0.37804035     0.84500
O469        O  0.77672181  0.21911685  0.45419576    -0.57500
O470        O  0.72889020  0.28331180  0.45376886    -0.60800
In471      In  0.50100082  0.25061460  0.08598547     1.36900
C472        C  0.94106515  0.25360405  0.04792449     0.76900
O473        O  0.55095659  0.27950984  0.04666994    -0.61500
O474        O  0.53481578  0.21495032  0.06427104    -0.52400
C475        C  0.56187330  0.31316690  0.12364809     0.69600
O476        O  0.53391146  0.31942050  0.10829205    -0.47300
C477        C  0.94332602  0.18967329  0.12670652     0.74300
O478        O  0.96860187  0.28742893  0.06378084    -0.59200
O479        O  0.96502252  0.18034863  0.10674878    -0.49200
O480        O  0.94501977  0.21901285  0.05124264    -0.55600
C481        C  0.55751244  0.24628570  0.04483175     0.84500
O482        O  0.55758840  0.27444919  0.12027049    -0.57500
O483        O  0.95278385  0.23041783  0.12622149    -0.60800
C484        C  0.59015686  0.24546972  0.02208997    -0.06800
C485        C  0.62415752  0.28701377  0.00992021    -0.17900
C486        C  0.65648298  0.28925030  0.48854376     0.10400
C487        C  0.65608029  0.24902802  0.47955254    -0.06700
C488        C  0.62194726  0.20744258  0.49157208    -0.17900
C489        C  0.58882609  0.20513390  0.01230970     0.10400
S490        S  0.69592395  0.34439446  0.47289249    -0.32900
S491        S  0.54518838  0.14958402  0.02441622    -0.32900
H492        H  0.50972034  0.15861002  0.01925540     0.28500
H493        H  0.69109682  0.32937998  0.44162967     0.28400
H494        H  0.62546885  0.31823972  0.01691543     0.19000
H495        H  0.62084579  0.17629673  0.48465071     0.19000
C496        C  0.90739997  0.25443814  0.02669386    -0.06800
C497        C  0.91905833  0.29423304  0.00992087    -0.17900
C498        C  0.89023456  0.29547104  0.48714192     0.10400
C499        C  0.84769400  0.25631236  0.48155470    -0.06700
C500        C  0.83595655  0.21686636  0.49893158    -0.17900
C501        C  0.86488753  0.21557897  0.02140606     0.10400
S502        S  0.91076828  0.34760446  0.46559214    -0.32900
S503        S  0.84448515  0.16373185  0.04342378    -0.32900
H504        H  0.86290996  0.18524319  0.07214333     0.28500
H505        H  0.90370003  0.32639077  0.43617000     0.28400
H506        H  0.95173526  0.32414531  0.01366232     0.19000
H507        H  0.80347678  0.18663620  0.49540733     0.19000
C508        C  0.59639907  0.34823370  0.14422020    -0.06800
C509        C  0.58723887  0.38028957  0.15800957    -0.17900
C510        C  0.61773436  0.41316169  0.17870808     0.10400
C511        C  0.65812589  0.41351405  0.18672236    -0.06700
C512        C  0.66763522  0.38203107  0.17226932    -0.17900
C513        C  0.63788630  0.35017138  0.15086511     0.10400
S514        S  0.60330053  0.45401243  0.19328943    -0.32900
S515        S  0.65600432  0.31435396  0.13208732    -0.32900
H516        H  0.64033245  0.31718481  0.10218716     0.28500
H517        H  0.64653771  0.49133556  0.18726702     0.28400
H518        H  0.55594592  0.37972752  0.15268383     0.19000
H519        H  0.69874221  0.38219164  0.17755682     0.19000
C520        C  0.84481433  0.08773766  0.18901448    -0.06800
C521        C  0.84756696  0.13004052  0.18641413    -0.17900
C522        C  0.87881502  0.16359432  0.16634298     0.10400
C523        C  0.90929278  0.15546083  0.14851249    -0.06700
C524        C  0.90658263  0.11300753  0.15118438    -0.17900
C525        C  0.87439652  0.07898602  0.17078752     0.10400
S526        S  0.87676788  0.21536324  0.16438128    -0.32900
S527        S  0.87136008  0.02464831  0.17015065    -0.32900
H528        H  0.82376229  0.99951109  0.17042795     0.28500
H529        H  0.87207385  0.21354523  0.13154579     0.28400
H530        H  0.82497170  0.13714127  0.20017585     0.19000
H531        H  0.92915958  0.10585488  0.13747418     0.19000
C532        C  0.74316358  0.15462800  0.35460720    -0.06800
C533        C  0.71076284  0.10865695  0.35881324    -0.17900
C534        C  0.70992814  0.07513653  0.33917813     0.10400
C535        C  0.74176407  0.08768338  0.31440615    -0.06700
C536        C  0.77323939  0.13367377  0.30969396    -0.17900
C537        C  0.77367574  0.16716302  0.32892670     0.10400
S538        S  0.66950098  0.01696312  0.34825976    -0.32900
S539        S  0.81269894  0.22526076  0.31843892    -0.32900
H540        H  0.78171222  0.24035937  0.32438797     0.28500
H541        H  0.69892122  0.50028179  0.34137022     0.28400
H542        H  0.68708380  0.09850497  0.37831293     0.19000
H543        H  0.79713018  0.14375396  0.29030595     0.19000
C544        C  0.76151546  0.34573680  0.35497724    -0.06800
C545        C  0.73441194  0.33007006  0.32813198    -0.17900
C546        C  0.73470817  0.36014175  0.30574962     0.10400
C547        C  0.76191227  0.40725076  0.31047236    -0.06700
C548        C  0.79018319  0.42305436  0.33669391    -0.17900
C549        C  0.78981403  0.39292992  0.35919374     0.10400
S550        S  0.70084299  0.33620840  0.27115380    -0.32900
S551        S  0.82353488  0.41704274  0.39374550    -0.32900
H552        H  0.78920655  0.38798122  0.41475032     0.28500
H553        H  0.73043975  0.37090405  0.25063222     0.28400
H554        H  0.71322562  0.29399318  0.32428410     0.19000
H555        H  0.81088283  0.45917802  0.34055324     0.19000
In556      In  0.75064189  0.49829721  0.75250001     1.36900
C557        C  0.74381202  0.05455758  0.79296414     0.76900
O558        O  0.72106225  0.43451723  0.78082742    -0.61500
O559        O  0.79237259  0.47651235  0.78070568    -0.52400
C560        C  0.69085920  0.44482014  0.71015516     0.69600
O561        O  0.68237792  0.46776590  0.72954787    -0.47300
C562        C  0.81105397  0.05463251  0.71124802     0.74600
O563        O  0.70944697  0.02108144  0.78132227    -0.59200
O564        O  0.81639389  0.02549572  0.72597452    -0.49200
O565        O  0.78095227  0.05858298  0.78415393    -0.55600
C566        C  0.75850767  0.44025931  0.79004370     0.84500
O567        O  0.72984609  0.44965860  0.71273777    -0.57500
O568        O  0.77480605  0.05450057  0.71771907    -0.60800
In569      In  0.75210714  0.25015239  0.91884862     1.36900
C570        C  0.75886118  0.31181147  0.87777148     0.76900
O571        O  0.78196971  0.22490585  0.88297118    -0.61500
O572        O  0.71289441  0.18224582  0.89500533    -0.52400
C573        C  0.81394534  0.25478517  0.95891422     0.69600
O574        O  0.81922093  0.28827965  0.94302758    -0.47300
C575        C  0.69052881  0.24903787  0.95816122     0.74300
O576        O  0.79126148  0.31784869  0.89505704    -0.59200
O577        O  0.68405766  0.21451698  0.94293993    -0.49200
O578        O  0.72349050  0.27391841  0.88125981    -0.55600
C579        C  0.74596639  0.18816285  0.87804039     0.84500
O580        O  0.77672179  0.21911695  0.95419576    -0.57500
O581        O  0.72889005  0.28331182  0.95376883    -0.60800
In582      In  0.50100078  0.25061451  0.58598546     1.36900
C583        C  0.94106506  0.25360389  0.54792451     0.76900
O584        O  0.55095655  0.27950974  0.54666999    -0.61500
O585        O  0.53481580  0.21495021  0.56427099    -0.52400
C586        C  0.56187328  0.31316698  0.62364801     0.69600
O587        O  0.53391132  0.31942044  0.60829193    -0.47300
C588        C  0.94332611  0.18967332  0.62670655     0.74300
O589        O  0.96860172  0.28742881  0.56378096    -0.59200
O590        O  0.96502268  0.18034872  0.60674883    -0.49200
O591        O  0.94501979  0.21901273  0.55124248    -0.55600
C592        C  0.55751245  0.24628566  0.54483174     0.84500
O593        O  0.55758840  0.27444925  0.62027059    -0.57500
O594        O  0.95278385  0.23041780  0.62622140    -0.60800
C595        C  0.59015689  0.24546991  0.52208993    -0.06800
C596        C  0.62415762  0.28701396  0.50992019    -0.17900
C597        C  0.65648290  0.28925018  0.98854371     0.10400
C598        C  0.65608029  0.24902802  0.97955256    -0.06700
C599        C  0.62194727  0.20744255  0.99157210    -0.17900
C600        C  0.58882614  0.20513396  0.51230971     0.10400
S601        S  0.69592392  0.34439449  0.97289252    -0.32900
S602        S  0.54518862  0.14958392  0.52441627    -0.32900
H603        H  0.50972082  0.15861022  0.51925538     0.28500
H604        H  0.69109675  0.32938013  0.94162966     0.28400
H605        H  0.62546913  0.31824038  0.51691548     0.19000
H606        H  0.62084572  0.17629667  0.98465074     0.19000
C607        C  0.90739998  0.25443798  0.52669381    -0.06800
C608        C  0.91905828  0.29423285  0.50992092    -0.17900
C609        C  0.89023451  0.29547114  0.98714186     0.10400
C610        C  0.84769409  0.25631254  0.98155466    -0.06700
C611        C  0.83595663  0.21686648  0.99893160    -0.17900
C612        C  0.86488737  0.21557875  0.52140599     0.10400
S613        S  0.91076815  0.34760459  0.96559217    -0.32900
S614        S  0.84448506  0.16373162  0.54342362    -0.32900
H615        H  0.86290982  0.18524260  0.57214328     0.28500
H616        H  0.90370014  0.32639098  0.93617002     0.28400
H617        H  0.95173551  0.32414552  0.51366245     0.19000
H618        H  0.80347714  0.18663674  0.99540749     0.19000
C619        C  0.59639896  0.34823373  0.64422022    -0.06800
C620        C  0.58723878  0.38028963  0.65800949    -0.17900
C621        C  0.61773427  0.41316173  0.67870806     0.10400
C622        C  0.65812588  0.41351419  0.68672231    -0.06700
C623        C  0.66763519  0.38203122  0.67226932    -0.17900
C624        C  0.63788633  0.35017157  0.65086503     0.10400
S625        S  0.60330034  0.45401239  0.69328942    -0.32900
S626        S  0.65600432  0.31435399  0.63208728    -0.32900
H627        H  0.64033234  0.31718466  0.60218712     0.28500
H628        H  0.64653750  0.49133565  0.68726719     0.28400
H629        H  0.55594574  0.37972741  0.65268375     0.19000
H630        H  0.69874253  0.38219241  0.67755647     0.19000
C631        C  0.84481427  0.08773777  0.68901447    -0.06800
C632        C  0.84756688  0.13004054  0.68641408    -0.17900
C633        C  0.87881490  0.16359432  0.66634299     0.10400
C634        C  0.90929277  0.15546080  0.64851244    -0.06700
C635        C  0.90658275  0.11300760  0.65118436    -0.17900
C636        C  0.87439663  0.07898613  0.67078748     0.10400
S637        S  0.87676792  0.21536332  0.66438130    -0.32900
S638        S  0.87136013  0.02464840  0.67015066    -0.32900
H639        H  0.82376235  0.99951104  0.67042802     0.28500
H640        H  0.87207393  0.21354532  0.63154581     0.28400
H641        H  0.82497109  0.13714130  0.70017579     0.19000
H642        H  0.92915979  0.10585490  0.63747393     0.19000
C643        C  0.74316340  0.15462817  0.85460718    -0.06800
C644        C  0.71076278  0.10865709  0.85881333    -0.17900
C645        C  0.70992806  0.07513660  0.83917825     0.10400
C646        C  0.74176400  0.08768345  0.81440621    -0.06700
C647        C  0.77323925  0.13367387  0.80969395    -0.17900
C648        C  0.77367564  0.16716317  0.82892668     0.10400
S649        S  0.66950123  0.01696308  0.84826002    -0.32900
S650        S  0.81269889  0.22526088  0.81843879    -0.32900
H651        H  0.78171286  0.24036036  0.82438791     0.28500
H652        H  0.69892058  0.50028166  0.84136998     0.28400
H653        H  0.68708326  0.09850510  0.87831308     0.19000
H654        H  0.79712960  0.14375403  0.79030577     0.19000
C655        C  0.76151547  0.34573690  0.85497719    -0.06800
C656        C  0.73441200  0.33007009  0.82813191    -0.17900
C657        C  0.73470832  0.36014178  0.80574951     0.10400
C658        C  0.76191230  0.40725082  0.81047236    -0.06700
C659        C  0.79018323  0.42305441  0.83669389    -0.17900
C660        C  0.78981399  0.39293000  0.85919370     0.10400
S661        S  0.70084334  0.33620848  0.77115360    -0.32900
S662        S  0.82353468  0.41704284  0.89374552    -0.32900
H663        H  0.78920615  0.38798138  0.91475024     0.28500
H664        H  0.73044030  0.37090443  0.75063228     0.28400
H665        H  0.71322530  0.29399321  0.82428426     0.19000
H666        H  0.81088311  0.45917812  0.84055321     0.19000
In667      In  0.75064153  0.99829687  0.25249993     1.36900
C668        C  0.74381240  0.55455766  0.29296431     0.76900
O669        O  0.72106189  0.93451671  0.28082731    -0.61500
O670        O  0.79237216  0.97651205  0.28070566    -0.52400
C671        C  0.69085876  0.94481981  0.21015507     0.69600
O672        O  0.68237757  0.96776545  0.22954789    -0.47300
C673        C  0.81105449  0.55463286  0.21124823     0.74600
O674        O  0.70944723  0.52108156  0.28132256    -0.59200
O675        O  0.81639431  0.52549599  0.22597471    -0.49200
O676        O  0.78095264  0.55858311  0.28415395    -0.55600
C677        C  0.75850731  0.94025898  0.29004367     0.84500
O678        O  0.72984559  0.94965835  0.21273773    -0.57500
O679        O  0.77480654  0.55450090  0.21771922    -0.60800
In680      In  0.75210740  0.75015260  0.41884871     1.36900
C681        C  0.75886118  0.81181139  0.37777147     0.76900
O682        O  0.78196995  0.72490622  0.38297129    -0.61500
O683        O  0.71289477  0.68224591  0.39500568    -0.52400
C684        C  0.81394565  0.75478548  0.45891428     0.69600
O685        O  0.81922128  0.78828009  0.44302781    -0.47300
C686        C  0.69052887  0.74903801  0.45816129     0.74300
O687        O  0.79126155  0.81784883  0.39505703    -0.59200
O688        O  0.68405796  0.71451722  0.44294003    -0.49200
O689        O  0.72349052  0.77391829  0.38125992    -0.55600
C690        C  0.74596670  0.68816310  0.37804060     0.84500
O691        O  0.77672212  0.71911719  0.45419570    -0.57500
O692        O  0.72889006  0.78331193  0.45376893    -0.60800
In693      In  0.50100043  0.75061412  0.08598540     1.36900
C694        C  0.94106527  0.75360440  0.04792466     0.76900
O695        O  0.55095614  0.77950944  0.04666993    -0.61500
O696        O  0.53481555  0.71494996  0.06427085    -0.52400
C697        C  0.56187291  0.81316661  0.12364791     0.69600
O698        O  0.53391105  0.81942013  0.10829182    -0.47300
C699        C  0.94332629  0.68967364  0.12670662     0.74300
O700        O  0.96860223  0.78742930  0.06378093    -0.59200
O701        O  0.96502296  0.68034904  0.10674895    -0.49200
O702        O  0.94501988  0.71901320  0.05124267    -0.55600
C703        C  0.55751200  0.74628533  0.04483153     0.84500
O704        O  0.55758792  0.77444879  0.12027058    -0.57500
O705        O  0.95278402  0.73041815  0.12622160    -0.60800
C706        C  0.59015667  0.74546966  0.02208986    -0.06800
C707        C  0.62415729  0.78701366  0.00992016    -0.17900
C708        C  0.65648269  0.78925007  0.48854367     0.10400
C709        C  0.65608032  0.74902809  0.47955257    -0.06700
C710        C  0.62194753  0.70744259  0.49157217    -0.17900
C711        C  0.58882604  0.70513381  0.01230952     0.10400
S712        S  0.69592341  0.84439441  0.47289240    -0.32900
S713        S  0.54518862  0.64958371  0.02441606    -0.32900
H714        H  0.50972026  0.65860925  0.01925538     0.28500
H715        H  0.69109671  0.82938023  0.44162952     0.28400
H716        H  0.62546870  0.81823999  0.01691552     0.19000
H717        H  0.62084628  0.67629702  0.48465096     0.19000
C718        C  0.90740020  0.75443850  0.02669396    -0.06800
C719        C  0.91905864  0.79423335  0.00992091    -0.17900
C720        C  0.89023490  0.79547147  0.48714182     0.10400
C721        C  0.84769426  0.75631282  0.48155478    -0.06700
C722        C  0.83595675  0.71686686  0.49893183    -0.17900
C723        C  0.86488761  0.71557940  0.02140634     0.10400
S724        S  0.91076866  0.84760488  0.46559207    -0.32900
S725        S  0.84448519  0.66373227  0.04342410    -0.32900
H726        H  0.86291018  0.68524364  0.07214361     0.28500
H727        H  0.90370023  0.82639104  0.43616998     0.28400
H728        H  0.95173545  0.82414586  0.01366260     0.19000
H729        H  0.80347677  0.68663686  0.49540791     0.19000
C730        C  0.59639845  0.84823334  0.14422014    -0.06800
C731        C  0.58723828  0.88028935  0.15800945    -0.17900
C732        C  0.61773380  0.91316141  0.17870808     0.10400
C733        C  0.65812531  0.91351386  0.18672223    -0.06700
C734        C  0.66763462  0.88203078  0.17226929    -0.17900
C735        C  0.63788570  0.85017113  0.15086495     0.10400
S736        S  0.60330023  0.95401235  0.19328937    -0.32900
S737        S  0.65600392  0.81435363  0.13208728    -0.32900
H738        H  0.64033181  0.81718422  0.10218715     0.28500
H739        H  0.64653729  0.99133577  0.18726711     0.28400
H740        H  0.55594543  0.87972738  0.15268370     0.19000
H741        H  0.69874141  0.88219185  0.17755649     0.19000
C742        C  0.84481497  0.58773798  0.18901465    -0.06800
C743        C  0.84756747  0.63004073  0.18641435    -0.17900
C744        C  0.87881544  0.66359462  0.16634322     0.10400
C745        C  0.90929328  0.65546123  0.14851268    -0.06700
C746        C  0.90658318  0.61300796  0.15118448    -0.17900
C747        C  0.87439706  0.57898635  0.17078755     0.10400
S748        S  0.87676825  0.71536360  0.16438174    -0.32900
S749        S  0.87136036  0.52464861  0.17015069    -0.32900
H750        H  0.82376256  0.49951160  0.17042815     0.28500
H751        H  0.87207433  0.71354558  0.13154624     0.28400
H752        H  0.82497200  0.63714112  0.20017575     0.19000
H753        H  0.92916046  0.60585545  0.13747415     0.19000
C754        C  0.74316402  0.65462848  0.35460729    -0.06800
C755        C  0.71076356  0.60865729  0.35881358    -0.17900
C756        C  0.70992876  0.57513671  0.33917846     0.10400
C757        C  0.74176443  0.58768354  0.31440631    -0.06700
C758        C  0.77323950  0.63367404  0.30969393    -0.17900
C759        C  0.77367591  0.66716345  0.32892664     0.10400
S760        S  0.66950197  0.51696330  0.34826051    -0.32900
S761        S  0.81269863  0.72526116  0.31843870    -0.32900
H762        H  0.78171186  0.74035965  0.32438796     0.28500
H763        H  0.69891999  0.00028120  0.34136982     0.28400
H764        H  0.68708459  0.59850554  0.37831308     0.19000
H765        H  0.79712972  0.64375421  0.29030549     0.19000
C766        C  0.76151551  0.84573692  0.35497718    -0.06800
C767        C  0.73441196  0.83007012  0.32813191    -0.17900
C768        C  0.73470827  0.86014174  0.30574948     0.10400
C769        C  0.76191201  0.90725066  0.31047233    -0.06700
C770        C  0.79018294  0.92305437  0.33669381    -0.17900
C771        C  0.78981377  0.89293004  0.35919372     0.10400
S772        S  0.70084332  0.83620817  0.27115354    -0.32900
S773        S  0.82353415  0.91704279  0.39374567    -0.32900
H774        H  0.78920541  0.88798095  0.41475013     0.28500
H775        H  0.73044016  0.87090422  0.25063225     0.28400
H776        H  0.71322592  0.79399364  0.32428399     0.19000
H777        H  0.81088270  0.95917818  0.34055302     0.19000
In778      In  0.75064157  0.99829694  0.75249997     1.36900
C779        C  0.74381247  0.55455782  0.79296421     0.76900
O780        O  0.72106191  0.93451698  0.78082754    -0.61500
O781        O  0.79237236  0.97651221  0.78070564    -0.52400
C782        C  0.69085879  0.94481976  0.71015515     0.69600
O783        O  0.68237761  0.96776554  0.72954786    -0.47300
C784        C  0.81105441  0.55463286  0.71124817     0.74600
O785        O  0.70944730  0.52108164  0.78132243    -0.59200
O786        O  0.81639408  0.52549588  0.72597462    -0.49200
O787        O  0.78095275  0.55858339  0.78415390    -0.55600
C788        C  0.75850743  0.94025920  0.79004376     0.84500
O789        O  0.72984561  0.94965823  0.71273779    -0.57500
O790        O  0.77480653  0.55450093  0.71771916    -0.60800
In791      In  0.75210733  0.75015260  0.91884875     1.36900
C792        C  0.75886119  0.81181145  0.87777151     0.76900
O793        O  0.78196994  0.72490619  0.88297131    -0.61500
O794        O  0.71289477  0.68224608  0.89500551    -0.52400
C795        C  0.81394547  0.75478537  0.95891437     0.69600
O796        O  0.81922126  0.78828003  0.94302777    -0.47300
C797        C  0.69052877  0.74903792  0.95816128     0.74300
O798        O  0.79126151  0.81784880  0.89505705    -0.59200
O799        O  0.68405786  0.71451715  0.94293993    -0.49200
O800        O  0.72349044  0.77391854  0.88126011    -0.55600
C801        C  0.74596674  0.68816310  0.87804056     0.84500
O802        O  0.77672191  0.71911703  0.95419585    -0.57500
O803        O  0.72888999  0.78331188  0.95376909    -0.60800
In804      In  0.50100049  0.75061416  0.58598541     1.36900
C805        C  0.94106543  0.75360441  0.54792450     0.76900
O806        O  0.55095616  0.77950934  0.54666991    -0.61500
O807        O  0.53481566  0.71494999  0.56427097    -0.52400
C808        C  0.56187308  0.81316667  0.62364789     0.69600
O809        O  0.53391113  0.81942012  0.60829189    -0.47300
C810        C  0.94332644  0.68967376  0.62670669     0.74300
O811        O  0.96860220  0.78742932  0.56378082    -0.59200
O812        O  0.96502290  0.68034908  0.60674891    -0.49200
O813        O  0.94502008  0.71901322  0.55124265    -0.55600
C814        C  0.55751220  0.74628536  0.54483169     0.84500
O815        O  0.55758799  0.77444887  0.62027049    -0.57500
O816        O  0.95278403  0.73041823  0.62622153    -0.60800
C817        C  0.59015669  0.74546949  0.52208993    -0.06800
C818        C  0.62415723  0.78701355  0.50992014    -0.17900
C819        C  0.65648276  0.78925015  0.98854377     0.10400
C820        C  0.65608017  0.74902793  0.97955254    -0.06700
C821        C  0.62194727  0.70744254  0.99157201    -0.17900
C822        C  0.58882630  0.70513383  0.51230981     0.10400
S823        S  0.69592374  0.84439442  0.97289253    -0.32900
S824        S  0.54518890  0.64958374  0.52441630    -0.32900
H825        H  0.50972080  0.65860966  0.51925555     0.28500
H826        H  0.69109672  0.82938004  0.94162969     0.28400
H827        H  0.62546871  0.81823945  0.51691551     0.19000
H828        H  0.62084565  0.67629650  0.98465050     0.19000
C829        C  0.90740020  0.75443854  0.52669394    -0.06800
C830        C  0.91905865  0.79423335  0.50992080    -0.17900
C831        C  0.89023476  0.79547137  0.98714193     0.10400
C832        C  0.84769424  0.75631277  0.98155484    -0.06700
C833        C  0.83595669  0.71686683  0.99893191    -0.17900
C834        C  0.86488761  0.71557931  0.52140623     0.10400
S835        S  0.91076854  0.84760468  0.96559200    -0.32900
S836        S  0.84448514  0.66373225  0.54342396    -0.32900
H837        H  0.86291001  0.68524336  0.57214356     0.28500
H838        H  0.90370009  0.82639069  0.93616996     0.28400
H839        H  0.95173561  0.82414595  0.51366242     0.19000
H840        H  0.80347694  0.68663744  0.99540830     0.19000
C841        C  0.59639866  0.84823338  0.64422015    -0.06800
C842        C  0.58723851  0.88028935  0.65800939    -0.17900
C843        C  0.61773397  0.91316142  0.67870802     0.10400
C844        C  0.65812551  0.91351388  0.68672231    -0.06700
C845        C  0.66763474  0.88203083  0.67226937    -0.17900
C846        C  0.63788589  0.85017115  0.65086511     0.10400
S847        S  0.60329991  0.95401204  0.69328925    -0.32900
S848        S  0.65600408  0.81435350  0.63208766    -0.32900
H849        H  0.64033228  0.81718418  0.60218744     0.28500
H850        H  0.64653701  0.99133544  0.68726712     0.28400
H851        H  0.55594544  0.87972700  0.65268390     0.19000
H852        H  0.69874176  0.88219165  0.67755663     0.19000
C853        C  0.84481471  0.58773796  0.68901451    -0.06800
C854        C  0.84756742  0.63004077  0.68641435    -0.17900
C855        C  0.87881549  0.66359464  0.66634323     0.10400
C856        C  0.90929328  0.65546122  0.64851261    -0.06700
C857        C  0.90658315  0.61300798  0.65118439    -0.17900
C858        C  0.87439709  0.57898650  0.67078755     0.10400
S859        S  0.87676851  0.71536371  0.66438177    -0.32900
S860        S  0.87136074  0.52464890  0.67015068    -0.32900
H861        H  0.82376296  0.49951135  0.67042797     0.28500
H862        H  0.87207432  0.71354564  0.63154629     0.28400
H863        H  0.82497214  0.63714135  0.70017609     0.19000
H864        H  0.92916050  0.60585543  0.63747414     0.19000
C865        C  0.74316413  0.65462857  0.85460718    -0.06800
C866        C  0.71076340  0.60865747  0.85881316    -0.17900
C867        C  0.70992877  0.57513698  0.83917808     0.10400
C868        C  0.74176469  0.58768383  0.81440613    -0.06700
C869        C  0.77323998  0.63367427  0.80969395    -0.17900
C870        C  0.77367625  0.66716361  0.82892662     0.10400
S871        S  0.66950155  0.51696354  0.84826000    -0.32900
S872        S  0.81269935  0.72526126  0.81843894    -0.32900
H873        H  0.78171253  0.74035968  0.82438818     0.28500
H874        H  0.69892022  0.00028114  0.84137001     0.28400
H875        H  0.68708436  0.59850571  0.87831246     0.19000
H876        H  0.79713072  0.64375450  0.79030550     0.19000
C877        C  0.76151532  0.84573693  0.85497736    -0.06800
C878        C  0.73441186  0.83007008  0.82813207    -0.17900
C879        C  0.73470810  0.86014176  0.80574968     0.10400
C880        C  0.76191213  0.90725077  0.81047244    -0.06700
C881        C  0.79018308  0.92305444  0.83669396    -0.17900
C882        C  0.78981392  0.89293006  0.85919380     0.10400
S883        S  0.70084339  0.83620870  0.77115362    -0.32900
S884        S  0.82353461  0.91704294  0.89374558    -0.32900
H885        H  0.78920605  0.88798148  0.91475028     0.28500
H886        H  0.73044045  0.87090477  0.75063240     0.28400
H887        H  0.71322506  0.79399326  0.82428445     0.19000
H888        H  0.81088297  0.95917815  0.84055317     0.19000
loop_ 
_geom_bond_atom_site_label_1 
_geom_bond_atom_site_label_2 
_geom_bond_distance 
_geom_bond_site_symmetry_2 
_ccdc_geom_bond_type 
In1           O3   2.236       .  S
In1           O4   2.259       .  S
In1          O12   2.227       .  S
In1           O6   2.253       .  S
In1         O230   2.268       .  S
In1         O231   2.248       .  S
In1         O232   2.237       .  S
In1         O235   2.227       .  S
C2            O8   1.263       .  A
C2           O10   1.258       .  A
C2           C91   1.479       .  S
O3           C11   1.258       .  A
O4           C11   1.260       .  A
C5           O12   1.261       .  A
C5            O6   1.264       .  A
C5           C67   1.486       .  S
C7            O9   1.264       .  A
C7           O13   1.262       .  A
C7           C76   1.479       .  S
O8         In223   2.268   1_545  S
O9         In223   2.248   1_545  S
O10        In223   2.237   1_545  S
C11         C103   1.473       .  S
O13        In223   2.227   1_545  S
In14         O16   2.227       .  S
In14         O17   2.259       .  S
In14         O25   2.237       .  S
In14         O19   2.248       .  S
In14         O21   2.246       .  S
In14         O22   2.251       .  S
In14         O23   2.234       .  S
In14         O26   2.233       .  S
C15          O21   1.262       .  A
C15          O23   1.260       .  A
C15         C100   1.478       .  S
O16          C24   1.260       .  A
O17          C24   1.263       .  A
C18          O25   1.262       .  A
C18          O19   1.260       .  A
C18          C55   1.489       .  S
C20          O22   1.263       .  A
C20          O26   1.258       .  A
C20          C43   1.481       .  S
C24          C88   1.484       .  S
In27         O29   2.229       .  S
In27         O30   2.245       .  S
In27         O38   2.235       .  S
In27         O32   2.246       .  S
In27        O478   2.257   1_455  S
In27        O479   2.254   1_455  S
In27        O480   2.233   1_455  S
In27        O483   2.225   1_455  S
C28          O34   1.263       .  A
C28          O36   1.260       .  A
C28          C52   1.479       .  S
O29          C37   1.261       .  A
O30          C37   1.262       .  A
C31          O38   1.261       .  A
C31          O32   1.263       .  A
C31          C64   1.481       .  S
C33          O35   1.263       .  A
C33          O39   1.259       .  A
C33          C79   1.485       .  S
O34        In471   2.257       .  S
O35        In471   2.254       .  S
O36        In471   2.233       .  S
C37          C40   1.481       .  S
O39        In471   2.225       .  S
C40          C41   1.404       .  A
C40          C45   1.414       .  A
C41         C153   1.397   1_554  A
C41          H50   1.084       .  S
C42          C43   1.416       .  A
C42         C152   1.397       .  A
C42          S46   1.803       .  S
C43          C44   1.404       .  A
C44         C156   1.400       .  A
C44          H51   1.083       .  S
C45         C155   1.400   1_554  A
C45          S47   1.801       .  S
S46          H49   1.408       .  S
S47          H48   1.408       .  S
C52          C53   1.403       .  A
C52          C57   1.412       .  A
C53         C165   1.402   1_554  A
C53          H62   1.084       .  S
C54          C55   1.419       .  A
C54         C164   1.402       .  A
C54          S58   1.801       .  S
C55          C56   1.406       .  A
C56         C168   1.397       .  A
C56          H63   1.084       .  S
C57         C167   1.397   1_554  A
C57          S59   1.804       .  S
S58          H61   1.408       .  S
S59          H60   1.407       .  S
C64          C65   1.404       .  A
C64          C69   1.414       .  A
C65          C66   1.401       .  A
C65          H74   1.084       .  S
C66          C67   1.416       .  A
C66          S70   1.800       .  S
C67          C68   1.406       .  A
C68          C69   1.397       .  A
C68          H75   1.083       .  S
C69          S71   1.804       .  S
S70          H73   1.408       .  S
S71          H72   1.408       .  S
C76          C77   1.401       .  A
C76          C81   1.413       .  A
C77          C78   1.396       .  A
C77          H86   1.084       .  S
C78          C79   1.417       .  A
C78          S82   1.802       .  S
C79          C80   1.407       .  A
C80          C81   1.402       .  A
C80          H87   1.083       .  S
C81          S83   1.802       .  S
S82          H85   1.408       .  S
S83          H84   1.407   1_545  S
C88          C89   1.406       .  A
C88          C93   1.415       .  A
C89          C90   1.404       .  A
C89          H98   1.084       .  S
C90          C91   1.413       .  A
C90          S94   1.802       .  S
C91          C92   1.403       .  A
C92          C93   1.398       .  A
C92          H99   1.084       .  S
C93          S95   1.804       .  S
S94         H319   1.407       .  S
S95          H96   1.408       .  S
H97         S316   1.407       .  S
C100        C101   1.404       .  A
C100        C105   1.415       .  A
C101        C102   1.397       .  A
C101        H110   1.084       .  S
C102        C103   1.412       .  A
C102        S106   1.805       .  S
C103        C104   1.402       .  A
C104        C105   1.401       .  A
C104        H111   1.084       .  S
C105        S107   1.802       .  S
S106        H109   1.407       .  S
S107        H108   1.408       .  S
In112       O114   2.236       .  S
In112       O115   2.259       .  S
In112       O123   2.227       .  S
In112       O117   2.253       .  S
In112       O341   2.268       .  S
In112       O342   2.248       .  S
In112       O343   2.237       .  S
In112       O346   2.227       .  S
C113        O119   1.263       .  A
C113        O121   1.258       .  A
C113        C202   1.479       .  S
O114        C122   1.258       .  A
O115        C122   1.260       .  A
C116        O123   1.261       .  A
C116        O117   1.264       .  A
C116        C178   1.486       .  S
C118        O120   1.264       .  A
C118        O124   1.262       .  A
C118        C187   1.479       .  S
O119       In334   2.268   1_545  S
O120       In334   2.248   1_545  S
O121       In334   2.237   1_545  S
C122        C214   1.473       .  S
O124       In334   2.227   1_545  S
In125       O127   2.227       .  S
In125       O128   2.259       .  S
In125       O136   2.237       .  S
In125       O130   2.248       .  S
In125       O132   2.246       .  S
In125       O133   2.251       .  S
In125       O134   2.234       .  S
In125       O137   2.233       .  S
C126        O132   1.262       .  A
C126        O134   1.260       .  A
C126        C211   1.478       .  S
O127        C135   1.260       .  A
O128        C135   1.263       .  A
C129        O136   1.262       .  A
C129        O130   1.260       .  A
C129        C166   1.489       .  S
C131        O133   1.263       .  A
C131        O137   1.258       .  A
C131        C154   1.481       .  S
C135        C199   1.484       .  S
In138       O140   2.229       .  S
In138       O141   2.245       .  S
In138       O149   2.235       .  S
In138       O143   2.246       .  S
In138       O589   2.257   1_455  S
In138       O590   2.254   1_455  S
In138       O591   2.233   1_455  S
In138       O594   2.225   1_455  S
C139        O145   1.263       .  A
C139        O147   1.260       .  A
C139        C163   1.479       .  S
O140        C148   1.261       .  A
O141        C148   1.262       .  A
C142        O149   1.261       .  A
C142        O143   1.263       .  A
C142        C175   1.481       .  S
C144        O146   1.263       .  A
C144        O150   1.259       .  A
C144        C190   1.485       .  S
O145       In582   2.257       .  S
O146       In582   2.254       .  S
O147       In582   2.233       .  S
C148        C151   1.481       .  S
O150       In582   2.225       .  S
C151        C152   1.404       .  A
C151        C156   1.414       .  A
C152        H161   1.084       .  S
C153        C154   1.416       .  A
C153        S157   1.803       .  S
C154        C155   1.404       .  A
C155        H162   1.083       .  S
C156        S158   1.801       .  S
S157        H160   1.408       .  S
S158        H159   1.408       .  S
C163        C164   1.403       .  A
C163        C168   1.412       .  A
C164        H173   1.084       .  S
C165        C166   1.419       .  A
C165        S169   1.801       .  S
C166        C167   1.406       .  A
C167        H174   1.084       .  S
C168        S170   1.804       .  S
S169        H172   1.408       .  S
S170        H171   1.407       .  S
C175        C176   1.404       .  A
C175        C180   1.414       .  A
C176        C177   1.401       .  A
C176        H185   1.084       .  S
C177        C178   1.416       .  A
C177        S181   1.800       .  S
C178        C179   1.406       .  A
C179        C180   1.397       .  A
C179        H186   1.084       .  S
C180        S182   1.804       .  S
S181        H184   1.408       .  S
S182        H183   1.408       .  S
C187        C188   1.401       .  A
C187        C192   1.413       .  A
C188        C189   1.396       .  A
C188        H197   1.084       .  S
C189        C190   1.417       .  A
C189        S193   1.802       .  S
C190        C191   1.407       .  A
C191        C192   1.402       .  A
C191        H198   1.083       .  S
C192        S194   1.802       .  S
S193        H196   1.408       .  S
S194        H195   1.407   1_545  S
C199        C200   1.406       .  A
C199        C204   1.415       .  A
C200        C201   1.404       .  A
C200        H209   1.084       .  S
C201        C202   1.413       .  A
C201        S205   1.802       .  S
C202        C203   1.403       .  A
C203        C204   1.398       .  A
C203        H210   1.084       .  S
C204        S206   1.804       .  S
S205        H430   1.407       .  S
S206        H207   1.408       .  S
H208        S427   1.407       .  S
C211        C212   1.404       .  A
C211        C216   1.415       .  A
C212        C213   1.397       .  A
C212        H221   1.084       .  S
C213        C214   1.412       .  A
C213        S217   1.805       .  S
C214        C215   1.402       .  A
C215        C216   1.401       .  A
C215        H222   1.084       .  S
C216        S218   1.802       .  S
S217        H220   1.407       .  S
S218        H219   1.408       .  S
In223       O225   2.236       .  S
In223       O226   2.259       .  S
In223       O234   2.227       .  S
In223       O228   2.253       .  S
C224        O230   1.263       .  A
C224        O232   1.258       .  A
C224        C313   1.479       .  S
O225        C233   1.258       .  A
O226        C233   1.260       .  A
C227        O234   1.261       .  A
C227        O228   1.264       .  A
C227        C289   1.486       .  S
C229        O231   1.264       .  A
C229        O235   1.262       .  A
C229        C298   1.479       .  S
C233        C325   1.473       .  S
In236       O238   2.227       .  S
In236       O239   2.259       .  S
In236       O247   2.237       .  S
In236       O241   2.248       .  S
In236       O243   2.246       .  S
In236       O244   2.251       .  S
In236       O245   2.234       .  S
In236       O248   2.233       .  S
C237        O243   1.262       .  A
C237        O245   1.260       .  A
C237        C322   1.478       .  S
O238        C246   1.260       .  A
O239        C246   1.263       .  A
C240        O247   1.262       .  A
C240        O241   1.260       .  A
C240        C277   1.489       .  S
C242        O244   1.263       .  A
C242        O248   1.258       .  A
C242        C265   1.481       .  S
C246        C310   1.484       .  S
In249       O251   2.229       .  S
In249       O252   2.245       .  S
In249       O260   2.235       .  S
In249       O254   2.246       .  S
In249       O700   2.257   1_455  S
In249       O701   2.254   1_455  S
In249       O702   2.233   1_455  S
In249       O705   2.225   1_455  S
C250        O256   1.263       .  A
C250        O258   1.260       .  A
C250        C274   1.479       .  S
O251        C259   1.261       .  A
O252        C259   1.262       .  A
C253        O260   1.261       .  A
C253        O254   1.263       .  A
C253        C286   1.481       .  S
C255        O257   1.263       .  A
C255        O261   1.259       .  A
C255        C301   1.485       .  S
O256       In693   2.257       .  S
O257       In693   2.254       .  S
O258       In693   2.233       .  S
C259        C262   1.481       .  S
O261       In693   2.225       .  S
C262        C263   1.404       .  A
C262        C267   1.414       .  A
C263        C375   1.397   1_554  A
C263        H272   1.084       .  S
C264        C374   1.397       .  A
C264        C265   1.416       .  A
C264        S268   1.803       .  S
C265        C266   1.404       .  A
C266        C378   1.400       .  A
C266        H273   1.083       .  S
C267        C377   1.400   1_554  A
C267        S269   1.801       .  S
S268        H271   1.408       .  S
S269        H270   1.408       .  S
C274        C275   1.403       .  A
C274        C279   1.412       .  A
C275        C387   1.402   1_554  A
C275        H284   1.084       .  S
C276        C386   1.402       .  A
C276        C277   1.419       .  A
C276        S280   1.801       .  S
C277        C278   1.406       .  A
C278        C390   1.397       .  A
C278        H285   1.084       .  S
C279        C389   1.397   1_554  A
C279        S281   1.804       .  S
S280        H283   1.408       .  S
S281        H282   1.407       .  S
C286        C287   1.404       .  A
C286        C291   1.414       .  A
C287        C288   1.401       .  A
C287        H296   1.084       .  S
C288        C289   1.416       .  A
C288        S292   1.800       .  S
C289        C290   1.406       .  A
C290        C291   1.397       .  A
C290        H297   1.083       .  S
C291        S293   1.804       .  S
S292        H295   1.408       .  S
S293        H294   1.408       .  S
C298        C299   1.401       .  A
C298        C303   1.413       .  A
C299        C300   1.396       .  A
C299        H308   1.084       .  S
C300        C301   1.417       .  A
C300        S304   1.802       .  S
C301        C302   1.407       .  A
C302        C303   1.402       .  A
C302        H309   1.083       .  S
C303        S305   1.802       .  S
S304        H307   1.408       .  S
S305        H306   1.407       .  S
C310        C311   1.406       .  A
C310        C315   1.415       .  A
C311        C312   1.404       .  A
C311        H320   1.084       .  S
C312        C313   1.413       .  A
C312        S316   1.802       .  S
C313        C314   1.403       .  A
C314        C315   1.398       .  A
C314        H321   1.084       .  S
C315        S317   1.804       .  S
S317        H318   1.408       .  S
C322        C323   1.404       .  A
C322        C327   1.415       .  A
C323        C324   1.397       .  A
C323        H332   1.084       .  S
C324        C325   1.412       .  A
C324        S328   1.805       .  S
C325        C326   1.402       .  A
C326        C327   1.401       .  A
C326        H333   1.084       .  S
C327        S329   1.802       .  S
S328        H331   1.407       .  S
S329        H330   1.408       .  S
In334       O336   2.236       .  S
In334       O337   2.259       .  S
In334       O345   2.227       .  S
In334       O339   2.253       .  S
C335        O341   1.263       .  A
C335        O343   1.258       .  A
C335        C424   1.479       .  S
O336        C344   1.258       .  A
O337        C344   1.260       .  A
C338        O345   1.261       .  A
C338        O339   1.264       .  A
C338        C400   1.486       .  S
C340        O342   1.264       .  A
C340        O346   1.262       .  A
C340        C409   1.479       .  S
C344        C436   1.473       .  S
In347       O349   2.227       .  S
In347       O350   2.259       .  S
In347       O358   2.237       .  S
In347       O352   2.248       .  S
In347       O354   2.246       .  S
In347       O355   2.251       .  S
In347       O356   2.234       .  S
In347       O359   2.233       .  S
C348        O354   1.262       .  A
C348        O356   1.260       .  A
C348        C433   1.478       .  S
O349        C357   1.260       .  A
O350        C357   1.263       .  A
C351        O358   1.262       .  A
C351        O352   1.260       .  A
C351        C388   1.489       .  S
C353        O355   1.263       .  A
C353        O359   1.258       .  A
C353        C376   1.481       .  S
C357        C421   1.484       .  S
In360       O362   2.229       .  S
In360       O363   2.245       .  S
In360       O371   2.235       .  S
In360       O365   2.246       .  S
In360       O811   2.257   1_455  S
In360       O812   2.254   1_455  S
In360       O813   2.233   1_455  S
In360       O816   2.225   1_455  S
C361        O367   1.263       .  A
C361        O369   1.260       .  A
C361        C385   1.479       .  S
O362        C370   1.261       .  A
O363        C370   1.262       .  A
C364        O371   1.261       .  A
C364        O365   1.263       .  A
C364        C397   1.481       .  S
C366        O368   1.263       .  A
C366        O372   1.259       .  A
C366        C412   1.485       .  S
O367       In804   2.257       .  S
O368       In804   2.254       .  S
O369       In804   2.233       .  S
C370        C373   1.481       .  S
O372       In804   2.225       .  S
C373        C374   1.404       .  A
C373        C378   1.414       .  A
C374        H383   1.084       .  S
C375        C376   1.416       .  A
C375        S379   1.803       .  S
C376        C377   1.404       .  A
C377        H384   1.083       .  S
C378        S380   1.801       .  S
S379        H382   1.408       .  S
S380        H381   1.408       .  S
C385        C386   1.403       .  A
C385        C390   1.412       .  A
C386        H395   1.084       .  S
C387        C388   1.419       .  A
C387        S391   1.801       .  S
C388        C389   1.406       .  A
C389        H396   1.084       .  S
C390        S392   1.804       .  S
S391        H394   1.408       .  S
S392        H393   1.407       .  S
C397        C398   1.404       .  A
C397        C402   1.414       .  A
C398        C399   1.401       .  A
C398        H407   1.084       .  S
C399        C400   1.416       .  A
C399        S403   1.800       .  S
C400        C401   1.406       .  A
C401        C402   1.397       .  A
C401        H408   1.083       .  S
C402        S404   1.804       .  S
S403        H406   1.408       .  S
S404        H405   1.408       .  S
C409        C410   1.401       .  A
C409        C414   1.413       .  A
C410        C411   1.396       .  A
C410        H419   1.084       .  S
C411        C412   1.417       .  A
C411        S415   1.802       .  S
C412        C413   1.407       .  A
C413        C414   1.402       .  A
C413        H420   1.083       .  S
C414        S416   1.802       .  S
S415        H418   1.408       .  S
S416        H417   1.407       .  S
C421        C422   1.406       .  A
C421        C426   1.415       .  A
C422        C423   1.404       .  A
C422        H431   1.084       .  S
C423        C424   1.413       .  A
C423        S427   1.802       .  S
C424        C425   1.403       .  A
C425        C426   1.398       .  A
C425        H432   1.084       .  S
C426        S428   1.804       .  S
S428        H429   1.408       .  S
C433        C434   1.404       .  A
C433        C438   1.415       .  A
C434        C435   1.397       .  A
C434        H443   1.084       .  S
C435        C436   1.412       .  A
C435        S439   1.805       .  S
C436        C437   1.402       .  A
C437        C438   1.401       .  A
C437        H444   1.084       .  S
C438        S440   1.802       .  S
S439        H442   1.407       .  S
S440        H441   1.408       .  S
In445       O447   2.236       .  S
In445       O448   2.259       .  S
In445       O456   2.227       .  S
In445       O450   2.253       .  S
In445       O674   2.268       .  S
In445       O675   2.248       .  S
In445       O676   2.237       .  S
In445       O679   2.227       .  S
C446        O452   1.263       .  A
C446        O454   1.258       .  A
C446        C535   1.479       .  S
O447        C455   1.258       .  A
O448        C455   1.260       .  A
C449        O456   1.261       .  A
C449        O450   1.264       .  A
C449        C511   1.486       .  S
C451        O453   1.264       .  A
C451        O457   1.262       .  A
C451        C520   1.479       .  S
O452       In667   2.268   1_545  S
O453       In667   2.248   1_545  S
O454       In667   2.237   1_545  S
C455        C547   1.473       .  S
O457       In667   2.227   1_545  S
In458       O460   2.227       .  S
In458       O461   2.259       .  S
In458       O469   2.237       .  S
In458       O463   2.248       .  S
In458       O465   2.246       .  S
In458       O466   2.251       .  S
In458       O467   2.234       .  S
In458       O470   2.233       .  S
C459        O465   1.262       .  A
C459        O467   1.260       .  A
C459        C544   1.478       .  S
O460        C468   1.260       .  A
O461        C468   1.263       .  A
C462        O469   1.262       .  A
C462        O463   1.260       .  A
C462        C499   1.489       .  S
C464        O466   1.263       .  A
C464        O470   1.258       .  A
C464        C487   1.481       .  S
C468        C532   1.484       .  S
In471       O473   2.229       .  S
In471       O474   2.245       .  S
In471       O482   2.235       .  S
In471       O476   2.246       .  S
C472        O478   1.263       .  A
C472        O480   1.260       .  A
C472        C496   1.479       .  S
O473        C481   1.261       .  A
O474        C481   1.262       .  A
C475        O482   1.261       .  A
C475        O476   1.263       .  A
C475        C508   1.481       .  S
C477        O479   1.263       .  A
C477        O483   1.259       .  A
C477        C523   1.485       .  S
C481        C484   1.481       .  S
C484        C485   1.404       .  A
C484        C489   1.414       .  A
C485        C597   1.397   1_554  A
C485        H494   1.084       .  S
C486        C596   1.397       .  A
C486        C487   1.416       .  A
C486        S490   1.803       .  S
C487        C488   1.404       .  A
C488        C600   1.400       .  A
C488        H495   1.083       .  S
C489        C599   1.400   1_554  A
C489        S491   1.801       .  S
S490        H493   1.408       .  S
S491        H492   1.408       .  S
C496        C497   1.403       .  A
C496        C501   1.412       .  A
C497        C609   1.402   1_554  A
C497        H506   1.084       .  S
C498        C608   1.402       .  A
C498        C499   1.419       .  A
C498        S502   1.801       .  S
C499        C500   1.406       .  A
C500        C612   1.397       .  A
C500        H507   1.084       .  S
C501        C611   1.397   1_554  A
C501        S503   1.804       .  S
S502        H505   1.408       .  S
S503        H504   1.407       .  S
C508        C509   1.404       .  A
C508        C513   1.414       .  A
C509        C510   1.401       .  A
C509        H518   1.084       .  S
C510        C511   1.416       .  A
C510        S514   1.800       .  S
C511        C512   1.406       .  A
C512        C513   1.397       .  A
C512        H519   1.084       .  S
C513        S515   1.804       .  S
S514        H517   1.408       .  S
S515        H516   1.408       .  S
C520        C521   1.401       .  A
C520        C525   1.413       .  A
C521        C522   1.396       .  A
C521        H530   1.084       .  S
C522        C523   1.417       .  A
C522        S526   1.802       .  S
C523        C524   1.407       .  A
C524        C525   1.402       .  A
C524        H531   1.083       .  S
C525        S527   1.802       .  S
S526        H529   1.408       .  S
S527        H528   1.407   1_545  S
C532        C533   1.406       .  A
C532        C537   1.415       .  A
C533        C534   1.404       .  A
C533        H542   1.084       .  S
C534        C535   1.413       .  A
C534        S538   1.802       .  S
C535        C536   1.403       .  A
C536        C537   1.398       .  A
C536        H543   1.084       .  S
C537        S539   1.804       .  S
S538        H763   1.407       .  S
S539        H540   1.408       .  S
H541        S760   1.407       .  S
C544        C545   1.404       .  A
C544        C549   1.415       .  A
C545        C546   1.397       .  A
C545        H554   1.084       .  S
C546        C547   1.412       .  A
C546        S550   1.805       .  S
C547        C548   1.402       .  A
C548        C549   1.401       .  A
C548        H555   1.084       .  S
C549        S551   1.802       .  S
S550        H553   1.407       .  S
S551        H552   1.408       .  S
In556       O558   2.236       .  S
In556       O559   2.259       .  S
In556       O567   2.227       .  S
In556       O561   2.253       .  S
In556       O785   2.268       .  S
In556       O786   2.248       .  S
In556       O787   2.237       .  S
In556       O790   2.227       .  S
C557        O563   1.263       .  A
C557        O565   1.258       .  A
C557        C646   1.479       .  S
O558        C566   1.258       .  A
O559        C566   1.260       .  A
C560        O567   1.261       .  A
C560        O561   1.264       .  A
C560        C622   1.486       .  S
C562        O564   1.264       .  A
C562        O568   1.262       .  A
C562        C631   1.479       .  S
O563       In778   2.268   1_545  S
O564       In778   2.248   1_545  S
O565       In778   2.237   1_545  S
C566        C658   1.473       .  S
O568       In778   2.227   1_545  S
In569       O571   2.227       .  S
In569       O572   2.259       .  S
In569       O580   2.237       .  S
In569       O574   2.248       .  S
In569       O576   2.246       .  S
In569       O577   2.251       .  S
In569       O578   2.234       .  S
In569       O581   2.233       .  S
C570        O576   1.262       .  A
C570        O578   1.260       .  A
C570        C655   1.478       .  S
O571        C579   1.260       .  A
O572        C579   1.263       .  A
C573        O580   1.262       .  A
C573        O574   1.260       .  A
C573        C610   1.489       .  S
C575        O577   1.263       .  A
C575        O581   1.258       .  A
C575        C598   1.481       .  S
C579        C643   1.484       .  S
In582       O584   2.229       .  S
In582       O585   2.245       .  S
In582       O593   2.235       .  S
In582       O587   2.246       .  S
C583        O589   1.263       .  A
C583        O591   1.260       .  A
C583        C607   1.479       .  S
O584        C592   1.261       .  A
O585        C592   1.262       .  A
C586        O593   1.261       .  A
C586        O587   1.263       .  A
C586        C619   1.481       .  S
C588        O590   1.263       .  A
C588        O594   1.259       .  A
C588        C634   1.485       .  S
C592        C595   1.481       .  S
C595        C596   1.404       .  A
C595        C600   1.414       .  A
C596        H605   1.084       .  S
C597        C598   1.416       .  A
C597        S601   1.803       .  S
C598        C599   1.404       .  A
C599        H606   1.083       .  S
C600        S602   1.801       .  S
S601        H604   1.408       .  S
S602        H603   1.408       .  S
C607        C608   1.403       .  A
C607        C612   1.412       .  A
C608        H617   1.084       .  S
C609        C610   1.419       .  A
C609        S613   1.801       .  S
C610        C611   1.406       .  A
C611        H618   1.084       .  S
C612        S614   1.804       .  S
S613        H616   1.408       .  S
S614        H615   1.407       .  S
C619        C620   1.404       .  A
C619        C624   1.414       .  A
C620        C621   1.401       .  A
C620        H629   1.084       .  S
C621        C622   1.416       .  A
C621        S625   1.800       .  S
C622        C623   1.406       .  A
C623        C624   1.397       .  A
C623        H630   1.084       .  S
C624        S626   1.804       .  S
S625        H628   1.408       .  S
S626        H627   1.408       .  S
C631        C632   1.401       .  A
C631        C636   1.413       .  A
C632        C633   1.396       .  A
C632        H641   1.084       .  S
C633        C634   1.417       .  A
C633        S637   1.802       .  S
C634        C635   1.407       .  A
C635        C636   1.402       .  A
C635        H642   1.083       .  S
C636        S638   1.802       .  S
S637        H640   1.408       .  S
S638        H639   1.407   1_545  S
C643        C644   1.406       .  A
C643        C648   1.415       .  A
C644        C645   1.404       .  A
C644        H653   1.084       .  S
C645        C646   1.413       .  A
C645        S649   1.802       .  S
C646        C647   1.403       .  A
C647        C648   1.398       .  A
C647        H654   1.084       .  S
C648        S650   1.804       .  S
S649        H874   1.407       .  S
S650        H651   1.408       .  S
H652        S871   1.407       .  S
C655        C656   1.404       .  A
C655        C660   1.415       .  A
C656        C657   1.397       .  A
C656        H665   1.084       .  S
C657        C658   1.412       .  A
C657        S661   1.805       .  S
C658        C659   1.402       .  A
C659        C660   1.401       .  A
C659        H666   1.084       .  S
C660        S662   1.802       .  S
S661        H664   1.407       .  S
S662        H663   1.408       .  S
In667       O669   2.236       .  S
In667       O670   2.259       .  S
In667       O678   2.227       .  S
In667       O672   2.253       .  S
C668        O674   1.263       .  A
C668        O676   1.258       .  A
C668        C757   1.479       .  S
O669        C677   1.258       .  A
O670        C677   1.260       .  A
C671        O678   1.261       .  A
C671        O672   1.264       .  A
C671        C733   1.486       .  S
C673        O675   1.264       .  A
C673        O679   1.262       .  A
C673        C742   1.479       .  S
C677        C769   1.473       .  S
In680       O682   2.227       .  S
In680       O683   2.259       .  S
In680       O691   2.237       .  S
In680       O685   2.248       .  S
In680       O687   2.246       .  S
In680       O688   2.251       .  S
In680       O689   2.234       .  S
In680       O692   2.233       .  S
C681        O687   1.262       .  A
C681        O689   1.260       .  A
C681        C766   1.478       .  S
O682        C690   1.260       .  A
O683        C690   1.263       .  A
C684        O691   1.262       .  A
C684        O685   1.260       .  A
C684        C721   1.489       .  S
C686        O688   1.263       .  A
C686        O692   1.258       .  A
C686        C709   1.481       .  S
C690        C754   1.484       .  S
In693       O695   2.229       .  S
In693       O696   2.245       .  S
In693       O704   2.235       .  S
In693       O698   2.246       .  S
C694        O700   1.263       .  A
C694        O702   1.260       .  A
C694        C718   1.479       .  S
O695        C703   1.261       .  A
O696        C703   1.262       .  A
C697        O704   1.261       .  A
C697        O698   1.263       .  A
C697        C730   1.481       .  S
C699        O701   1.263       .  A
C699        O705   1.259       .  A
C699        C745   1.485       .  S
C703        C706   1.481       .  S
C706        C707   1.404       .  A
C706        C711   1.414       .  A
C707        C819   1.397   1_554  A
C707        H716   1.084       .  S
C708        C818   1.397       .  A
C708        C709   1.416       .  A
C708        S712   1.803       .  S
C709        C710   1.404       .  A
C710        C822   1.400       .  A
C710        H717   1.083       .  S
C711        C821   1.400   1_554  A
C711        S713   1.801       .  S
S712        H715   1.408       .  S
S713        H714   1.408       .  S
C718        C719   1.403       .  A
C718        C723   1.412       .  A
C719        C831   1.402   1_554  A
C719        H728   1.084       .  S
C720        C830   1.402       .  A
C720        C721   1.419       .  A
C720        S724   1.801       .  S
C721        C722   1.406       .  A
C722        C834   1.397       .  A
C722        H729   1.084       .  S
C723        C833   1.397   1_554  A
C723        S725   1.804       .  S
S724        H727   1.408       .  S
S725        H726   1.407       .  S
C730        C731   1.404       .  A
C730        C735   1.414       .  A
C731        C732   1.401       .  A
C731        H740   1.084       .  S
C732        C733   1.416       .  A
C732        S736   1.800       .  S
C733        C734   1.406       .  A
C734        C735   1.397       .  A
C734        H741   1.083       .  S
C735        S737   1.804       .  S
S736        H739   1.408       .  S
S737        H738   1.408       .  S
C742        C743   1.401       .  A
C742        C747   1.413       .  A
C743        C744   1.396       .  A
C743        H752   1.084       .  S
C744        C745   1.417       .  A
C744        S748   1.802       .  S
C745        C746   1.407       .  A
C746        C747   1.402       .  A
C746        H753   1.083       .  S
C747        S749   1.802       .  S
S748        H751   1.408       .  S
S749        H750   1.407       .  S
C754        C755   1.406       .  A
C754        C759   1.415       .  A
C755        C756   1.404       .  A
C755        H764   1.084       .  S
C756        C757   1.413       .  A
C756        S760   1.802       .  S
C757        C758   1.403       .  A
C758        C759   1.398       .  A
C758        H765   1.084       .  S
C759        S761   1.804       .  S
S761        H762   1.408       .  S
C766        C767   1.404       .  A
C766        C771   1.415       .  A
C767        C768   1.397       .  A
C767        H776   1.084       .  S
C768        C769   1.412       .  A
C768        S772   1.805       .  S
C769        C770   1.402       .  A
C770        C771   1.401       .  A
C770        H777   1.084       .  S
C771        S773   1.802       .  S
S772        H775   1.407       .  S
S773        H774   1.408       .  S
In778       O780   2.236       .  S
In778       O781   2.259       .  S
In778       O789   2.227       .  S
In778       O783   2.253       .  S
C779        O785   1.263       .  A
C779        O787   1.258       .  A
C779        C868   1.479       .  S
O780        C788   1.258       .  A
O781        C788   1.260       .  A
C782        O789   1.261       .  A
C782        O783   1.264       .  A
C782        C844   1.486       .  S
C784        O786   1.264       .  A
C784        O790   1.262       .  A
C784        C853   1.479       .  S
C788        C880   1.473       .  S
In791       O793   2.227       .  S
In791       O794   2.259       .  S
In791       O802   2.237       .  S
In791       O796   2.248       .  S
In791       O798   2.246       .  S
In791       O799   2.251       .  S
In791       O800   2.234       .  S
In791       O803   2.233       .  S
C792        O798   1.262       .  A
C792        O800   1.260       .  A
C792        C877   1.478       .  S
O793        C801   1.260       .  A
O794        C801   1.263       .  A
C795        O802   1.262       .  A
C795        O796   1.260       .  A
C795        C832   1.489       .  S
C797        O799   1.263       .  A
C797        O803   1.258       .  A
C797        C820   1.481       .  S
C801        C865   1.484       .  S
In804       O806   2.229       .  S
In804       O807   2.245       .  S
In804       O815   2.235       .  S
In804       O809   2.246       .  S
C805        O811   1.263       .  A
C805        O813   1.260       .  A
C805        C829   1.479       .  S
O806        C814   1.261       .  A
O807        C814   1.262       .  A
C808        O815   1.261       .  A
C808        O809   1.263       .  A
C808        C841   1.481       .  S
C810        O812   1.263       .  A
C810        O816   1.259       .  A
C810        C856   1.485       .  S
C814        C817   1.481       .  S
C817        C818   1.404       .  A
C817        C822   1.414       .  A
C818        H827   1.084       .  S
C819        C820   1.416       .  A
C819        S823   1.803       .  S
C820        C821   1.404       .  A
C821        H828   1.083       .  S
C822        S824   1.801       .  S
S823        H826   1.408       .  S
S824        H825   1.408       .  S
C829        C830   1.403       .  A
C829        C834   1.412       .  A
C830        H839   1.084       .  S
C831        C832   1.419       .  A
C831        S835   1.801       .  S
C832        C833   1.406       .  A
C833        H840   1.084       .  S
C834        S836   1.804       .  S
S835        H838   1.408       .  S
S836        H837   1.407       .  S
C841        C842   1.404       .  A
C841        C846   1.414       .  A
C842        C843   1.401       .  A
C842        H851   1.084       .  S
C843        C844   1.416       .  A
C843        S847   1.800       .  S
C844        C845   1.406       .  A
C845        C846   1.397       .  A
C845        H852   1.084       .  S
C846        S848   1.804       .  S
S847        H850   1.408       .  S
S848        H849   1.408       .  S
C853        C854   1.401       .  A
C853        C858   1.413       .  A
C854        C855   1.396       .  A
C854        H863   1.084       .  S
C855        C856   1.417       .  A
C855        S859   1.802       .  S
C856        C857   1.407       .  A
C857        C858   1.402       .  A
C857        H864   1.083       .  S
C858        S860   1.802       .  S
S859        H862   1.408       .  S
S860        H861   1.407       .  S
C865        C866   1.406       .  A
C865        C870   1.415       .  A
C866        C867   1.404       .  A
C866        H875   1.084       .  S
C867        C868   1.413       .  A
C867        S871   1.802       .  S
C868        C869   1.403       .  A
C869        C870   1.398       .  A
C869        H876   1.084       .  S
C870        S872   1.804       .  S
S872        H873   1.408       .  S
C877        C878   1.404       .  A
C877        C882   1.415       .  A
C878        C879   1.397       .  A
C878        H887   1.084       .  S
C879        C880   1.412       .  A
C879        S883   1.805       .  S
C880        C881   1.402       .  A
C881        C882   1.401       .  A
C881        H888   1.084       .  S
C882        S884   1.802       .  S
S883        H886   1.407       .  S
S884        H885   1.408       .  S
