geometry optimzed in LAMMPS
_audit_creation_date              2020-11-30 
_audit_creation_method            'lammps2cif' 
_symmetry_space_group_name_H-M    'P1' 
_symmetry_Int_Tables_number       1 
_symmetry_cell_setting            triclinic 
loop_ 
_symmetry_equiv_pos_as_xyz 
  x,y,z 
_cell_length_a                    43.56183265 
_cell_length_b                    43.43125675633314 
_cell_length_c                    65.24179751522868 
_cell_angle_alpha                 90.07703178180233 
_cell_angle_beta                  89.98006571890153 
_cell_angle_gamma                 120.05414300760418 
loop_ 
_atom_site_label 
_atom_site_type_symbol 
_atom_site_fract_x 
_atom_site_fract_y 
_atom_site_fract_z 
_atom_site_charge 
O1          O  0.03993601  0.49081184  0.25068607    -0.71700
O2          O  0.04531354  0.08036774  0.24952944    -0.71900
O3          O  0.04259978  0.03472598  0.27824351    -0.71700
O4          O  0.04713719  0.03796451  0.21977726    -0.71700
O5          O  0.48167776  0.50846052  0.22229523    -0.71700
O6          O  0.48113741  0.50319630  0.28015136    -0.71700
O7          O  0.49056977  0.05391535  0.24939530    -0.71700
O8          O  0.48083186  0.46215904  0.24958506    -0.71800
V9          V  0.04398424  0.03612376  0.24898986     1.35200
V10         V  0.48261069  0.50667852  0.25126521     1.35200
C11         C  0.50955367  0.46153664  0.24932243     0.77600
C12         C  0.51922080  0.08341022  0.24945662     0.77600
C13         C  0.01289377  0.01787251  0.28725058     0.77500
C14         C  0.01884102  0.02413342  0.20930958     0.77500
O15         O  0.04083780  0.32887502  0.24904358    -0.71700
O16         O  0.04562764  0.24435756  0.25295914    -0.71900
O17         O  0.04252142  0.28303353  0.22215209    -0.71700
O18         O  0.04421012  0.29059181  0.28005240    -0.71700
O19         O  0.48880072  0.25871072  0.28085532    -0.71700
O20         O  0.48598382  0.25662956  0.22265850    -0.71700
O21         O  0.49010917  0.21571653  0.25177412    -0.71700
O22         O  0.48425037  0.29959653  0.25163191    -0.71800
V23         V  0.04217950  0.28610628  0.25108632     1.35200
V24         V  0.48839639  0.25828525  0.25173817     1.35200
C25         C  0.01135073  0.32795134  0.24910606     0.77600
C26         C  0.01761431  0.21430599  0.25321694     0.77600
C27         C  0.01366166  0.26652828  0.21241514     0.77500
C28         C  0.01576942  0.27597596  0.29027684     0.77500
O29         O  0.26582515  0.46300424  0.25031544    -0.71700
O30         O  0.26871388  0.05130327  0.25080168    -0.71900
O31         O  0.27114154  0.00768857  0.27883295    -0.71700
O32         O  0.26469011  0.00697592  0.22081841    -0.71700
O33         O  0.20689056  0.47920949  0.22332914    -0.71700
O34         O  0.21172007  0.47837337  0.28140781    -0.71700
O35         O  0.21133234  0.02309202  0.25243679    -0.71700
O36         O  0.20836061  0.43481953  0.25104861    -0.71800
V37         V  0.26684231  0.00681102  0.24983126     1.35200
V38         V  0.21037233  0.47937910  0.25233539     1.35200
C39         C  0.23685924  0.43389397  0.24989376     0.77600
C40         C  0.24030831  0.05231845  0.25205161     0.77600
C41         C  0.24353046  0.99443613  0.28981633     0.77500
C42         C  0.23496688  0.99203807  0.21183916     0.77500
O43         O  0.20513688  0.26949671  0.24820722    -0.71700
O44         O  0.20771008  0.18416420  0.25271908    -0.71900
O45         O  0.21105527  0.23302201  0.27948034    -0.71700
O46         O  0.20249132  0.22130060  0.22135907    -0.71700
O47         O  0.25979559  0.24971899  0.21894778    -0.71700
O48         O  0.26830456  0.26406171  0.27633768    -0.71700
O49         O  0.26505148  0.21366381  0.25077136    -0.71700
O50         O  0.26225979  0.29912242  0.24460396    -0.71800
V51         V  0.20767607  0.22748425  0.25038819     1.35200
V52         V  0.26273244  0.25598442  0.24770276     1.35200
C53         C  0.23320802  0.29899088  0.24591555     0.77600
C54         C  0.23662583  0.18408204  0.25252239     0.77600
C55         C  0.24127208  0.25159583  0.28771377     0.77500
C56         C  0.22992523  0.23377443  0.21018622     0.77500
O57         O  0.03114307  0.46802318  0.41662963    -0.71700
O58         O  0.44391982  0.46671560  0.41561582    -0.71900
O59         O  0.48997530  0.47189666  0.38664940    -0.71700
O60         O  0.48545505  0.46261590  0.44459779    -0.71700
O61         O  0.01183413  0.02142999  0.44508864    -0.71700
O62         O  0.01686963  0.03163258  0.38744443    -0.71700
O63         O  0.47266423  0.03013767  0.41848484    -0.71700
O64         O  0.05783500  0.02653198  0.41625009    -0.71800
V65         V  0.48824955  0.46836776  0.41564708     1.35200
V66         V  0.01365034  0.02527491  0.41623347     1.35200
C67         C  0.05845563  0.99784096  0.41458638     0.77600
C68         C  0.44348316  0.00138758  0.41655791     0.77600
C69         C  0.00373351  0.00477447  0.37581530     0.77500
C70         C  0.99705418  0.99121874  0.45356196     0.77500
O71         O  0.04526249  0.25179507  0.41832868    -0.71700
O72         O  0.45858803  0.25256326  0.41800028    -0.71900
O73         O  0.50166062  0.25015846  0.38961867    -0.71700
O74         O  0.50133338  0.25286874  0.44754352    -0.71700
O75         O  0.02995493  0.31030442  0.44723986    -0.71700
O76         O  0.03282897  0.30966519  0.38884018    -0.71700
O77         O  0.48821342  0.31008274  0.41596325    -0.71700
O78         O  0.07468996  0.30942615  0.41915722    -0.71800
V79         V  0.50210652  0.25269834  0.41858690     1.35200
V80         V  0.03095653  0.30898089  0.41806073     1.35200
C81         C  0.07475784  0.28033293  0.41906168     0.77600
C82         C  0.45860174  0.28160275  0.41655571     0.77600
C83         C  0.01710175  0.28053952  0.37908215     0.77500
C84         C  0.01555910  0.28135944  0.45713005     0.77500
O85         O  0.26082943  0.02048376  0.44705619    -0.71700
O86         O  0.26270973  0.02336534  0.38882163    -0.71900
O87         O  0.21826114  0.02169787  0.41780299    -0.71700
O88         O  0.30549433  0.02252655  0.41803153    -0.71700
O89         O  0.27838309  0.46234588  0.41696311    -0.71700
O90         O  0.19167888  0.46310042  0.41851542    -0.71700
O91         O  0.23365183  0.46295422  0.38877076    -0.71700
O92         O  0.23585170  0.46217438  0.44672926    -0.71800
V93         V  0.26129204  0.02090399  0.41794237     1.35200
V94         V  0.23551562  0.46376805  0.41774756     1.35200
C95         C  0.24681397  0.99123283  0.45662170     0.77600
C96         C  0.24727703  0.99482418  0.37857341     0.77600
C97         C  0.18899311  0.99281388  0.41769169     0.77500
C98         C  0.30647721  0.99398786  0.41695965     0.77500
O99         O  0.29399782  0.24944764  0.41457775    -0.71700
O100        O  0.20798238  0.25150271  0.41806652    -0.71900
O101        O  0.24574356  0.24575033  0.38752796    -0.71700
O102        O  0.25552090  0.25400632  0.44500985    -0.71700
O103        O  0.28304572  0.31159527  0.44288476    -0.71700
O104        O  0.27662786  0.30302348  0.38421827    -0.71700
O105        O  0.23743743  0.30872948  0.41422063    -0.71700
O106        O  0.32333911  0.30701400  0.41298603    -0.71800
V107        V  0.25143160  0.25134055  0.41620644     1.35200
V108        V  0.27966131  0.30655530  0.41358871     1.35200
C109        C  0.32353978  0.27805514  0.41381375     0.77600
C110        C  0.20803677  0.28061657  0.41664529     0.77600
C111        C  0.25887466  0.27254854  0.37593772     0.77500
C112        C  0.27025409  0.28381290  0.45390740     0.77500
O113        O  0.03080245  0.47115812  0.08574080    -0.71700
O114        O  0.03666680  0.06013183  0.07956473    -0.71900
O115        O  0.03980777  0.02041587  0.10988702    -0.71700
O116        O  0.03278916  0.01254713  0.05176018    -0.71700
O117        O  0.47639377  0.48425316  0.05639559    -0.71700
O118        O  0.47840627  0.48922887  0.11431635    -0.71700
O119        O  0.47874602  0.03076935  0.08510279    -0.71700
O120        O  0.47724440  0.44297431  0.08650938    -0.71800
V121        V  0.03527383  0.01596363  0.08084971     1.35200
V122        V  0.47865094  0.48727104  0.08534299     1.35200
C123        C  0.00231845  0.44158111  0.08625525     0.77600
C124        C  0.00827433  0.06112084  0.08099753     0.77600
C125        C  0.00380372  0.50514859  0.12336811     0.77500
C126        C  0.99858106  0.49402788  0.04538955     0.77500
O127        O  0.47944094  0.19462798  0.08612611    -0.71700
O128        O  0.48154983  0.28258476  0.08394438    -0.71900
O129        O  0.48039316  0.23671635  0.05595253    -0.71700
O130        O  0.48081514  0.24078473  0.11398936    -0.71700
O131        O  0.03719862  0.26761507  0.11350701    -0.71700
O132        O  0.03654654  0.26600599  0.05537835    -0.71700
O133        O  0.03747632  0.31085881  0.08419314    -0.71700
O134        O  0.03608030  0.22289386  0.08469843    -0.71800
V135        V  0.48168912  0.23921586  0.08497575     1.35200
V136        V  0.03574602  0.26632662  0.08445328     1.35200
C137        C  0.00702642  0.19374856  0.08458165     0.77600
C138        C  0.00885678  0.31162258  0.08450847     0.77600
C139        C  0.50902851  0.24956125  0.04591278     0.77500
C140        C  0.50963943  0.25590071  0.12386451     0.77500
O141        O  0.20226794  0.46651060  0.05573728    -0.71700
O142        O  0.20037552  0.46697566  0.11398946    -0.71900
O143        O  0.19855214  0.00870705  0.08333916    -0.71700
O144        O  0.20056247  0.42274354  0.08530708    -0.71700
O145        O  0.25812410  0.45101986  0.08602270    -0.71700
O146        O  0.25607251  0.03769567  0.08386608    -0.71700
O147        O  0.25527883  0.99453041  0.11327646    -0.71700
O148        O  0.25728044  0.99381316  0.05550608    -0.71800
V149        V  0.20233169  0.46710716  0.08488539     1.35200
V150        V  0.25499860  0.99353663  0.08435659     1.35200
C151        C  0.22910420  0.97946084  0.04506869     0.77600
C152        C  0.22641551  0.98043192  0.12307720     0.77600
C153        C  0.22725609  0.03808886  0.08326483     0.77500
C154        C  0.22908799  0.42188734  0.08570731     0.77500
O155        O  0.20007334  0.21665477  0.05282547    -0.71700
O156        O  0.20038832  0.21568099  0.11109287    -0.71900
O157        O  0.20026940  0.25984640  0.08235948    -0.71700
O158        O  0.20046543  0.17262242  0.08157245    -0.71700
O159        O  0.25791567  0.20179740  0.08303552    -0.71700
O160        O  0.25773758  0.28855112  0.08065126    -0.71700
O161        O  0.25778441  0.24691568  0.11084998    -0.71700
O162        O  0.25760389  0.24304338  0.05285470    -0.71800
V163        V  0.20134123  0.21673776  0.08194778     1.35200
V164        V  0.25662510  0.24454966  0.08184628     1.35200
C165        C  0.22884020  0.22936262  0.04293294     0.77600
C166        C  0.22925073  0.23123791  0.12097276     0.77600
C167        C  0.22909635  0.28914780  0.08141492     0.77500
C168        C  0.22935004  0.17235870  0.08250262     0.77500
O169        O  0.01767933  0.04474260  0.91596681    -0.71700
O170        O  0.43238636  0.45671768  0.91951787    -0.71900
O171        O  0.47054587  0.99956196  0.94663083    -0.71700
O172        O  0.47074178  0.00280600  0.88837835    -0.71700
O173        O  0.00000610  0.47136717  0.88807482    -0.71700
O174        O  0.00386467  0.47200603  0.94626750    -0.71700
O175        O  0.46151751  0.42835008  0.91908840    -0.71700
O176        O  0.04628049  0.01583264  0.91503549    -0.71800
V177        V  0.47117537  0.00058723  0.91747050     1.35200
V178        V  0.00118959  0.47203966  0.91717166     1.35200
C179        C  0.04694171  0.04522144  0.91550552     0.77600
C180        C  0.43207138  0.42747289  0.91956604     0.77600
C181        C  0.98927266  0.48573653  0.95668015     0.77500
C182        C  0.98689241  0.48750247  0.87859530     0.77500
O183        O  0.48668205  0.25428285  0.94742384    -0.71700
O184        O  0.48627472  0.25537765  0.88944652    -0.71900
O185        O  0.44375724  0.21035582  0.91830011    -0.71700
O186        O  0.02994232  0.30075300  0.91764459    -0.71700
O187        O  0.05860306  0.27191549  0.91717141    -0.71700
O188        O  0.47384118  0.18290271  0.91827123    -0.71700
O189        O  0.01398936  0.22705963  0.88887031    -0.71700
O190        O  0.01645489  0.22998823  0.94715072    -0.71800
V191        V  0.48705734  0.25421104  0.91842930     1.35200
V192        V  0.01462580  0.22893871  0.91801587     1.35200
C193        C  0.50246115  0.24120400  0.95720459     0.77600
C194        C  0.50078182  0.24150729  0.87914010     0.77600
C195        C  0.44413062  0.18142399  0.91829625     0.77500
C196        C  0.05923330  0.30128620  0.91726093     0.77500
O197        O  0.21948866  0.43761128  0.91824900    -0.71700
O198        O  0.30898991  0.01920688  0.91953826    -0.71900
O199        O  0.26147568  0.47997077  0.94804757    -0.71700
O200        O  0.26435796  0.48230124  0.89005894    -0.71700
O201        O  0.24049767  0.00746397  0.88882001    -0.71700
O202        O  0.23330828  0.00337238  0.94671436    -0.71700
O203        O  0.28092020  0.04868069  0.91950521    -0.71700
O204        O  0.19078941  0.46637709  0.91711555    -0.71800
V205        V  0.26236616  0.48178986  0.91904591     1.35200
V206        V  0.23763309  0.00503665  0.91777904     1.35200
C207        C  0.19020543  0.43702198  0.91733908     0.77600
C208        C  0.30997927  0.04881818  0.91986089     0.77600
C209        C  0.24514469  0.49237123  0.95793602     0.77500
C210        C  0.25167771  0.49813278  0.87995561     0.77500
O211        O  0.26704787  0.29616087  0.91712442    -0.71700
O212        O  0.17966182  0.20967225  0.91354683    -0.71900
O213        O  0.22023056  0.25030988  0.94426774    -0.71700
O214        O  0.22636054  0.25544891  0.88631321    -0.71700
O215        O  0.25431785  0.22591909  0.88643159    -0.71700
O216        O  0.24874077  0.22126726  0.94452861    -0.71700
O217        O  0.20783592  0.18033602  0.91391765    -0.71700
O218        O  0.29529608  0.26691603  0.91717156    -0.71800
V219        V  0.22390522  0.25235647  0.91529355     1.35200
V220        V  0.25101963  0.22417154  0.91549611     1.35200
C221        C  0.29617967  0.29645291  0.91765144     0.77600
C222        C  0.17871326  0.18013248  0.91345516     0.77600
C223        C  0.23311292  0.23459876  0.95432200     0.77500
C224        C  0.24127193  0.24155095  0.87638989     0.77500
O225        O  0.01199799  0.01627816  0.55306769    -0.71700
O226        O  0.00788877  0.01632074  0.61092305    -0.71900
O227        O  0.05315412  0.01555285  0.58340825    -0.71700
O228        O  0.46464319  0.01257834  0.58302787    -0.71700
O229        O  0.43674577  0.45840892  0.58460597    -0.71700
O230        O  0.02376036  0.45933306  0.58269987    -0.71700
O231        O  0.48089478  0.45842300  0.61340172    -0.71700
O232        O  0.47895807  0.45734055  0.55497314    -0.71800
V233        V  0.00941637  0.01507936  0.58197068     1.35200
V234        V  0.48037474  0.45884538  0.58420781     1.35200
C235        C  0.99707027  0.98780320  0.54280520     0.77600
C236        C  0.99349705  0.98758421  0.62092402     0.77600
C237        C  0.05327762  0.98648227  0.58347656     0.77500
C238        C  0.43520396  0.98392716  0.58354375     0.77500
O239        O  0.45097826  0.24124554  0.58443048    -0.71700
O240        O  0.03782987  0.24028036  0.58307934    -0.71900
O241        O  0.49419330  0.23956880  0.61308251    -0.71700
O242        O  0.49618577  0.24557795  0.55520252    -0.71700
O243        O  0.02257044  0.29947298  0.55676733    -0.71700
O244        O  0.01875619  0.29266797  0.61489941    -0.71700
O245        O  0.06504720  0.29772864  0.58593903    -0.71700
O246        O  0.47850133  0.29882794  0.58633527    -0.71800
V247        V  0.49567584  0.24372998  0.58417477     1.35200
V248        V  0.02019332  0.29500405  0.58578928     1.35200
C249        C  0.44960850  0.26957773  0.58546584     0.77600
C250        C  0.06664529  0.26957464  0.58426767     0.77600
C251        C  0.00536932  0.26267333  0.62360040     0.77500
C252        C  0.00918920  0.27170946  0.54579303     0.77500
O253        O  0.25889516  0.01343024  0.55550781    -0.71700
O254        O  0.26072256  0.01605063  0.61342596    -0.71900
O255        O  0.30242869  0.01291335  0.58429532    -0.71700
O256        O  0.21701633  0.01608575  0.58464187    -0.71700
O257        O  0.18576809  0.45725155  0.58515390    -0.71700
O258        O  0.27192733  0.45528928  0.58468274    -0.71700
O259        O  0.22952685  0.45647249  0.61409942    -0.71700
O260        O  0.22843665  0.45597795  0.55585029    -0.71800
V261        V  0.25918345  0.01348416  0.58447349     1.35200
V262        V  0.22942042  0.45731301  0.58496223     1.35200
C263        C  0.24281933  0.98441698  0.54576257     0.77600
C264        C  0.24712383  0.98770327  0.62375642     0.77600
C265        C  0.30188681  0.98350925  0.58404386     0.77500
C266        C  0.18725706  0.98782669  0.58555567     0.77500
O267        O  0.20038011  0.24005435  0.57964315    -0.71700
O268        O  0.28793448  0.24103342  0.58087409    -0.71900
O269        O  0.24106951  0.23597803  0.60919548    -0.71700
O270        O  0.24768345  0.24504619  0.55117280    -0.71700
O271        O  0.27521631  0.30255564  0.55402604    -0.71700
O272        O  0.26926180  0.29344309  0.61205565    -0.71700
O273        O  0.31585426  0.29853350  0.58356654    -0.71700
O274        O  0.22839110  0.29748275  0.58271694    -0.71800
V275        V  0.24472046  0.24163409  0.58023078     1.35200
V276        V  0.27160732  0.29688224  0.58301811     1.35200
C277        C  0.19932378  0.26851091  0.58141353     0.77600
C278        C  0.31691967  0.27004587  0.58242147     0.77600
C279        C  0.25423930  0.26323572  0.62058186     0.77500
C280        C  0.26319673  0.27529624  0.54268789     0.77500
O281        O  0.47224192  0.43702257  0.75136631    -0.71700
O282        O  0.05619487  0.02553053  0.74823332    -0.71900
O283        O  0.01027545  0.48107042  0.77955497    -0.71700
O284        O  0.01061074  0.48083888  0.72158719    -0.71700
O285        O  0.48200259  0.00979581  0.72031926    -0.71700
O286        O  0.47981590  0.01118400  0.77863933    -0.71700
O287        O  0.02866886  0.05548575  0.74933944    -0.71700
O288        O  0.44292321  0.46521006  0.74976122    -0.71800
V289        V  0.00992862  0.48165757  0.75058074     1.35200
V290        V  0.48150204  0.01005946  0.74946790     1.35200
C291        C  0.44283953  0.43610004  0.75038340     0.77600
C292        C  0.05757820  0.05525967  0.74877100     0.77600
C293        C  0.99797034  0.99730908  0.78776667     0.77500
C294        C  0.99791247  0.99680550  0.70966272     0.77500
O295        O  0.44539126  0.21977189  0.75094244    -0.71700
O296        O  0.02898175  0.30267263  0.75137522    -0.71900
O297        O  0.48958822  0.26640738  0.72308081    -0.71700
O298        O  0.48846472  0.26025443  0.78103027    -0.71700
O299        O  0.01580696  0.22861355  0.77927944    -0.71700
O300        O  0.01659939  0.23325265  0.72115537    -0.71700
O301        O  0.05896633  0.27511682  0.75113178    -0.71700
O302        O  0.47391644  0.19070600  0.74950679    -0.71800
V303        V  0.48944607  0.26265652  0.75203395     1.35200
V304        V  0.01554857  0.23136705  0.75022913     1.35200
C305        C  0.44474618  0.19041676  0.75005856     0.77600
C306        C  0.05863158  0.30407027  0.75131939     0.77600
C307        C  0.00122213  0.24728431  0.71185900     0.77500
C308        C  0.00182741  0.24276420  0.78986113     0.77500
O309        O  0.19283001  0.46663736  0.75209292    -0.71700
O310        O  0.28370329  0.05509563  0.75094695    -0.71900
O311        O  0.23985763  0.01034719  0.72236718    -0.71700
O312        O  0.24167917  0.01112868  0.78036136    -0.71700
O313        O  0.26639777  0.48326006  0.78116841    -0.71700
O314        O  0.26281421  0.47784170  0.72281888    -0.71700
O315        O  0.31356673  0.02736985  0.74965063    -0.71700
O316        O  0.22112660  0.43744991  0.75340545    -0.71800
V317        V  0.24138975  0.01023828  0.75138056     1.35200
V318        V  0.26422243  0.48106662  0.75198210     1.35200
C319        C  0.19202140  0.43712461  0.75306965     0.77600
C320        C  0.31324341  0.05631055  0.74977901     0.77600
C321        C  0.24898733  0.49267079  0.71267767     0.77500
C322        C  0.25201856  0.49812149  0.79079979     0.77500
O323        O  0.26386347  0.23202948  0.77698295    -0.71700
O324        O  0.26219396  0.23287044  0.71863387    -0.71900
O325        O  0.30697546  0.27564431  0.74779706    -0.71700
O326        O  0.21918747  0.18924546  0.74801689    -0.71700
O327        O  0.19133674  0.21892178  0.74794914    -0.71700
O328        O  0.27900517  0.30513979  0.74957257    -0.71700
O329        O  0.23591497  0.26412186  0.71966880    -0.71700
O330        O  0.23462206  0.26027876  0.77766897    -0.71800
V331        V  0.26253480  0.23299734  0.74783949     1.35200
V332        V  0.23573897  0.26150097  0.74866723     1.35200
C333        C  0.24926501  0.24584756  0.78732613     0.77600
C334        C  0.24913381  0.24910589  0.70921046     0.77600
C335        C  0.30799528  0.30518651  0.74907955     0.77500
C336        C  0.19019261  0.18929017  0.74817375     0.77500
C337        C  0.41065493  0.15657747  0.74972432     0.00000
C338        C  0.40774635  0.12824299  0.73787294    -0.11900
C339        C  0.37592512  0.09567885  0.73716508     0.02200
C340        C  0.34660639  0.09080570  0.74893173    -0.00100
C341        C  0.34928112  0.11936041  0.76043183    -0.11800
C342        C  0.38089526  0.15207178  0.76092070     0.02100
H343        H  0.43016608  0.13179490  0.72880883     0.15100
H344        H  0.32684507  0.11585851  0.76945908     0.15100
C345        C  0.38243866  0.17996451  0.77374941     0.36700
C346        C  0.37343655  0.06846643  0.72337706     0.36600
N347        N  0.38370336  0.20231346  0.78402845    -0.43600
N348        N  0.37125232  0.04680021  0.71215058    -0.43600
C349        C  0.09224651  0.33855618  0.75177098     0.00000
C350        C  0.12308955  0.33891011  0.75832358    -0.11900
C351        C  0.15564304  0.37053290  0.75920039     0.02200
C352        C  0.15792521  0.40300815  0.75334109    -0.00100
C353        C  0.12700412  0.40270340  0.74691221    -0.11800
C354        C  0.09442319  0.37097214  0.74596148     0.02100
H355        H  0.12178941  0.31432323  0.76300156     0.15100
H356        H  0.12835375  0.42726876  0.74215175     0.15100
C357        C  0.06418789  0.37255896  0.73820220     0.36700
C358        C  0.18587367  0.36851936  0.76655288     0.36600
N359        N  0.04006844  0.37394292  0.73191112    -0.43600
N360        N  0.20995289  0.36666688  0.77244676    -0.43600
C361        C  0.34233800  0.33884864  0.74988870     0.00000
C362        C  0.37319373  0.33848798  0.74401359    -0.11900
C363        C  0.40630038  0.36958349  0.74419765     0.02200
C364        C  0.40891782  0.40208107  0.75022690    -0.00100
C365        C  0.37816543  0.40236240  0.75633091    -0.11800
C366        C  0.34517801  0.37125075  0.75642481     0.02100
H367        H  0.37148979  0.31383930  0.73903286     0.15100
H368        H  0.37991417  0.42700262  0.76139227     0.15100
C369        C  0.31520153  0.37352539  0.76400364     0.36700
C370        C  0.43675515  0.36724334  0.73765309     0.36600
N371        N  0.29135928  0.37552616  0.77019683    -0.43600
N372        N  0.46109730  0.36522524  0.73245929    -0.43600
C373        C  0.09196428  0.08910651  0.74879164     0.00000
C374        C  0.09199749  0.12079174  0.75321588    -0.11900
C375        C  0.12342687  0.15361872  0.75330869     0.02200
C376        C  0.15597313  0.15534929  0.74861208    -0.00100
C377        C  0.15601600  0.12364732  0.74440948    -0.11800
C378        C  0.12463165  0.09077845  0.74449641     0.02100
H379        H  0.06729444  0.12000152  0.75684796     0.15100
H380        H  0.18075426  0.12445412  0.74085229     0.15100
C381        C  0.12711281  0.05957598  0.73980698     0.36700
C382        C  0.12123829  0.18468877  0.75884907     0.36600
N383        N  0.12933304  0.03470140  0.73607258    -0.43600
N384        N  0.11933991  0.20946619  0.76336300    -0.43600
C385        C  0.25246114  0.25975675  0.64331380     0.00000
C386        C  0.24773541  0.22818684  0.65225735    -0.11900
C387        C  0.24680107  0.22405978  0.67362997     0.02200
C388        C  0.24999422  0.25165130  0.68653379    -0.00100
C389        C  0.25409699  0.28288428  0.67762168    -0.11800
C390        C  0.25568708  0.28730593  0.65633293     0.02100
H391        H  0.24517992  0.20675705  0.64254330     0.15100
H392        H  0.25662944  0.30428256  0.68736972     0.15100
C393        C  0.26018553  0.32031481  0.64840462     0.36700
C394        C  0.24148525  0.19087362  0.68184198     0.36600
N395        N  0.26397599  0.34682119  0.64200489    -0.43600
N396        N  0.23720429  0.16426435  0.68841394    -0.43600
C397        C  0.24756621  0.49116239  0.68990322     0.00000
C398        C  0.25550699  0.96759449  0.67943957    -0.11900
C399        C  0.25381659  0.96483642  0.65806081     0.02200
C400        C  0.24466547  0.48631458  0.64656778    -0.00100
C401        C  0.24124977  0.51296696  0.65662792    -0.11800
C402        C  0.24233252  0.51546774  0.67802114     0.02100
H403        H  0.25915570  0.94850431  0.68824272     0.15100
H404        H  0.23744366  0.53185557  0.64770668     0.15100
C405        C  0.23864621  0.54378307  0.68713272     0.36700
C406        C  0.25895551  0.93777441  0.64850165     0.36600
N407        N  0.23556206  0.56645417  0.69433654    -0.43600
N408        N  0.26334141  0.91630995  0.64075812    -0.43600
C409        C  0.35110991  0.27043772  0.58312913     0.00000
C410        C  0.35102818  0.23913788  0.58865823    -0.11900
C411        C  0.38259383  0.23812900  0.58982384     0.02200
C412        C  0.41527915  0.26896279  0.58518777    -0.00100
C413        C  0.41531814  0.30025813  0.57975514    -0.11800
C414        C  0.38382312  0.30129511  0.57863532     0.02100
H415        H  0.32618811  0.21536427  0.59239794     0.15100
H416        H  0.44011234  0.32406920  0.57600084     0.15100
C417        C  0.38608068  0.33419101  0.57220611     0.36700
C418        C  0.38048300  0.20537783  0.59641884     0.36600
N419        N  0.38799779  0.36058372  0.56703880    -0.43600
N420        N  0.37863993  0.17910067  0.60176547    -0.43600
C421        C  0.10112013  0.27037716  0.58371433     0.00000
C422        C  0.10122974  0.23859778  0.58747915    -0.11900
C423        C  0.13261111  0.23724232  0.58687578     0.02200
C424        C  0.16510268  0.26823849  0.58217089    -0.00100
C425        C  0.16509471  0.30015421  0.57858586    -0.11800
C426        C  0.13368154  0.30155965  0.57931251     0.02100
H427        H  0.07660566  0.21454465  0.59117224     0.15100
H428        H  0.18978188  0.32422581  0.57501099     0.15100
C429        C  0.13586795  0.33523293  0.57500831     0.36700
C430        C  0.13049008  0.20383435  0.59185296     0.36600
N431        N  0.13781898  0.36229965  0.57156987    -0.43600
N432        N  0.12859959  0.17700691  0.59592170    -0.43600
C433        C  0.00470001  0.25952572  0.64615760     0.00000
C434        C  0.50399270  0.23344751  0.65546277    -0.11900
C435        C  0.50307936  0.22904530  0.67673852     0.02200
C436        C  0.00249505  0.25058966  0.68918923    -0.00100
C437        C  0.99657603  0.27668096  0.68032272    -0.11800
C438        C  0.99791539  0.28150008  0.65906807     0.02100
H439        H  0.50259490  0.21260675  0.64565750     0.15100
H440        H  0.99114085  0.29366969  0.69003061     0.15100
C441        C  0.99093367  0.30830194  0.65092869     0.36700
C442        C  0.49916229  0.19623435  0.68469877     0.36600
N443        N  0.98529329  0.32975869  0.64442712    -0.43600
N444        N  0.49595758  0.16990195  0.69103633    -0.43600
C445        C  0.33547071  0.98257962  0.58389582     0.00000
C446        C  0.36695093  0.01373605  0.58921314    -0.11900
C447        C  0.39950842  0.01474352  0.58952511     0.02200
C448        C  0.40128233  0.98416091  0.58401436    -0.00100
C449        C  0.37066853  0.45434924  0.58507690    -0.11800
C450        C  0.33757573  0.45226630  0.58530950     0.02100
H451        H  0.36615041  0.03744816  0.59352407     0.15100
H452        H  0.37155342  0.42984789  0.58558236     0.15100
C453        C  0.30643324  0.41727962  0.58624119     0.36700
C454        C  0.43021167  0.04722779  0.59636888     0.36600
N455        N  0.28164998  0.38914099  0.58697897    -0.43600
N456        N  0.45468167  0.07323954  0.60198088    -0.43600
C457        C  0.15346556  0.98850432  0.58563923     0.00000
C458        C  0.12078778  0.45609337  0.57932337    -0.11900
C459        C  0.08837494  0.45545833  0.57846550     0.02200
C460        C  0.08721794  0.98621087  0.58457881    -0.00100
C461        C  0.11916261  0.01854730  0.58222166    -0.11800
C462        C  0.15198897  0.02003818  0.58270408     0.02100
H463        H  0.12132539  0.43189636  0.57596190     0.15100
H464        H  0.11860756  0.04295573  0.57973498     0.15100
C465        C  0.18338901  0.05435833  0.57980859     0.36700
C466        C  0.05731315  0.42236456  0.57270361     0.36600
N467        N  0.20843201  0.08194136  0.57747597    -0.43600
N468        N  0.03257448  0.39579165  0.56802276    -0.43600
C469        C  0.99310020  0.98851920  0.64366301     0.00000
C470        C  0.49641266  0.01572889  0.65443179    -0.11900
C471        C  0.49690456  0.01900773  0.67578479     0.02200
C472        C  0.99623299  0.99477916  0.68695966    -0.00100
C473        C  0.00053278  0.46781415  0.67896003    -0.11800
C474        C  0.00063887  0.46551404  0.65755969     0.02100
H475        H  0.49820526  0.03720091  0.64509361     0.15100
H476        H  0.00330571  0.44843529  0.68801555     0.15100
C477        C  0.00572331  0.43809885  0.64839435     0.36700
C478        C  0.50088112  0.05148573  0.68438201     0.36600
N479        N  0.00989996  0.41620731  0.64103867    -0.43600
N480        N  0.50410330  0.07752099  0.69126392    -0.43600
C481        C  0.24352121  0.24343976  0.85360955     0.00000
C482        C  0.26505046  0.23254188  0.84352277    -0.11900
C483        C  0.26786201  0.23336746  0.82209513     0.02200
C484        C  0.24853681  0.24506839  0.81014533    -0.00100
C485        C  0.22736740  0.25632748  0.82027188    -0.11800
C486        C  0.22470899  0.25571236  0.84163630     0.02100
H487        H  0.28002330  0.22344206  0.85240990     0.15100
H488        H  0.21235881  0.26546700  0.81145152     0.15100
C489        C  0.20193363  0.26741804  0.85058608     0.36700
C490        C  0.29122772  0.22253398  0.81302215     0.36600
N491        N  0.18368704  0.27687789  0.85765699    -0.43600
N492        N  0.31006959  0.21389892  0.80586689    -0.43600
C493        C  0.25234585  0.49950459  0.81362418     0.00000
C494        C  0.27414295  0.48976649  0.82434869    -0.11900
C495        C  0.27514114  0.48995267  0.84580530     0.02200
C496        C  0.25335289  0.49938651  0.85717302    -0.00100
C497        C  0.23593182  0.00558168  0.84608928    -0.11800
C498        C  0.23552704  0.00696425  0.82471806     0.02100
H499        H  0.29084571  0.48221500  0.81594547     0.15100
H500        H  0.21966589  0.01345826  0.85469413     0.15100
C501        C  0.21222225  0.01770694  0.81547022     0.36700
C502        C  0.29961841  0.48126785  0.85554726     0.36600
N503        N  0.19328106  0.02607632  0.80819025    -0.43600
N504        N  0.31940655  0.47449486  0.86329353    -0.43600
C505        C  0.34430895  0.08277682  0.92013597     0.00000
C506        C  0.37513003  0.08279623  0.91370149    -0.11900
C507        C  0.40791772  0.11439811  0.91280936     0.02200
C508        C  0.41039555  0.14694637  0.91868752    -0.00100
C509        C  0.37963934  0.14682146  0.92524244    -0.11800
C510        C  0.34691590  0.11536727  0.92602992     0.02100
H511        H  0.37352879  0.05812366  0.90889013     0.15100
H512        H  0.38112292  0.17147386  0.92998615     0.15100
C513        C  0.31680868  0.11762611  0.93335827     0.36700
C514        C  0.43804032  0.11255984  0.90506140     0.36600
N515        N  0.29280548  0.11965468  0.93922332    -0.43600
N516        N  0.46205637  0.11095616  0.89877828    -0.43600
C517        C  0.09318307  0.33558300  0.91695306     0.00000
C518        C  0.09189717  0.36719341  0.91557532    -0.11900
C519        C  0.12282679  0.40042464  0.91543788     0.02200
C520        C  0.15631690  0.40266395  0.91681223    -0.00100
C521        C  0.15761578  0.37103694  0.91802458    -0.11800
C522        C  0.12668980  0.33779011  0.91808301     0.02100
H523        H  0.06651427  0.36609150  0.91456147     0.15100
H524        H  0.18299546  0.37213535  0.91905576     0.15100
C525        C  0.13064908  0.30675986  0.91949900     0.36700
C526        C  0.11888758  0.43141549  0.91374818     0.36600
N527        N  0.13411986  0.28208078  0.92062421    -0.43600
N528        N  0.11543908  0.45606566  0.91232316    -0.43600
C529        C  0.99951944  0.24150470  0.85611658     0.00000
C530        C  0.52557142  0.23661534  0.84570143    -0.11900
C531        C  0.52721461  0.23771733  0.82424807     0.02200
C532        C  0.00177908  0.24187290  0.81263522    -0.00100
C533        C  0.97932452  0.25101957  0.82315365    -0.11800
C534        C  0.97794022  0.25091835  0.84455582     0.02100
H535        H  0.54423587  0.23186713  0.85415190     0.15100
H536        H  0.96240111  0.25810997  0.81462083     0.15100
C537        C  0.95353271  0.26005220  0.85399200     0.36700
C538        C  0.55457208  0.23338013  0.81447422     0.36600
N539        N  0.93393137  0.26741251  0.86143446    -0.43600
N540        N  0.57664513  0.23002832  0.80674534    -0.43600
C541        C  0.33059291  0.33032732  0.91866747     0.00000
C542        C  0.36194741  0.32880585  0.92075085    -0.11900
C543        C  0.39525145  0.35975070  0.92123598     0.02200
C544        C  0.39775509  0.39343924  0.91978389    -0.00100
C545        C  0.36636471  0.39492597  0.91796979    -0.11800
C546        C  0.33314708  0.36405405  0.91727099     0.02100
H547        H  0.36059159  0.30324339  0.92187137     0.15100
H548        H  0.36764277  0.42044113  0.91672500     0.15100
C549        C  0.30253600  0.36829061  0.91459335     0.36700
C550        C  0.42608800  0.35570849  0.92311733     0.36600
N551        N  0.27817647  0.37192321  0.91236821    -0.43600
N552        N  0.45067492  0.35225149  0.92456391    -0.43600
C553        C  0.08095262  0.07943539  0.91518117     0.00000
C554        C  0.08021631  0.11082096  0.91111957    -0.11900
C555        C  0.11142562  0.14384811  0.91032434     0.02200
C556        C  0.14459311  0.14597707  0.91345754    -0.00100
C557        C  0.14528319  0.11456641  0.91753051    -0.11800
C558        C  0.11406816  0.08164362  0.91862021     0.02100
H559        H  0.05507510  0.10965283  0.90845804     0.15100
H560        H  0.17036878  0.11569003  0.92033205     0.15100
C561        C  0.11714739  0.05105041  0.92402968     0.36700
C562        C  0.10818885  0.17477678  0.90621066     0.36600
N563        N  0.11981619  0.02670729  0.92848070    -0.43600
N564        N  0.10533563  0.19942459  0.90298379    -0.43600
C565        C  0.99029839  0.99007447  0.85370932     0.00000
C566        C  0.99851849  0.46826399  0.84499468    -0.11900
C567        C  0.00133070  0.46962742  0.82362267     0.02200
C568        C  0.99665456  0.99608248  0.81048640    -0.00100
C569        C  0.46545196  0.99773006  0.82187258    -0.11800
C570        C  0.46215413  0.99507504  0.84328933     0.02100
H571        H  0.00430951  0.45011232  0.85326765     0.15100
H572        H  0.44479435  0.99831901  0.81289927     0.15100
C573        C  0.43098812  0.99296496  0.85247567     0.36700
C574        C  0.01181643  0.44644249  0.81385028     0.36600
N575        N  0.40598137  0.99121871  0.85982912    -0.43600
N576        N  0.02034070  0.42792967  0.80607178    -0.43600
C577        C  0.22898705  0.22876605  0.02029799     0.00000
C578        C  0.20405685  0.23400375  0.00959116    -0.19100
C579        C  0.20467277  0.23592787  0.98815118     0.02200
C580        C  0.23044861  0.23205713  0.97699357    -0.00100
C581        C  0.25450752  0.22549642  0.98777339    -0.11800
C582        C  0.25408209  0.22395879  0.00918196     0.02100
H583        H  0.18451229  0.23742506  0.01802631     0.15100
H584        H  0.27412837  0.22200933  0.97948156     0.15100
C585        C  0.27909632  0.21641997  0.01928453     0.36700
C586        C  0.17821535  0.24144185  0.97816508     0.36600
N587        N  0.29908827  0.21029739  0.02736067    -0.43600
N588        N  0.15700087  0.24591411  0.97023477    -0.43600
C589        C  0.22867880  0.38774168  0.08508914     0.00000
C590        C  0.25770796  0.38706542  0.07626945    -0.11900
C591        C  0.25824093  0.35529325  0.07449266     0.02200
C592        C  0.22928915  0.32325267  0.08185344    -0.00100
C593        C  0.20019779  0.32394266  0.09061460    -0.11800
C594        C  0.19969769  0.35574605  0.09239767     0.02100
H595        H  0.27986586  0.41140170  0.07033963     0.15100
H596        H  0.17802929  0.29964400  0.09656204     0.15100
C597        C  0.16977101  0.35479676  0.10257123     0.36700
C598        C  0.28838354  0.35645698  0.06446265     0.36600
N599        N  0.14579113  0.35385435  0.11082069    -0.43600
N600        N  0.31257664  0.35756748  0.05638262    -0.43600
C601        C  0.22733512  0.07218619  0.08268059     0.00000
C602        C  0.25804030  0.10326982  0.08896704    -0.11900
C603        C  0.25958710  0.13618821  0.08891875     0.02200
C604        C  0.22957783  0.13839412  0.08275619    -0.00100
C605        C  0.19896950  0.10733466  0.07633028    -0.11800
C606        C  0.19773148  0.07456728  0.07594299     0.02100
H607        H  0.28103914  0.10190555  0.09406061     0.15100
H608        H  0.17603736  0.10870841  0.07111217     0.15100
C609        C  0.16632191  0.04440427  0.06761522     0.36700
C610        C  0.29232389  0.16693180  0.09542800     0.36600
N611        N  0.14120498  0.02040375  0.06078041    -0.43600
N612        N  0.31868983  0.19150655  0.10051358    -0.43600
C613        C  0.24185118  0.48897852  0.98054838     0.00000
C614        C  0.21079461  0.98182456  0.98815469    -0.11900
C615        C  0.20517431  0.97861338  0.00938627     0.02200
C616        C  0.23144785  0.97946176  0.02243666    -0.00100
C617        C  0.26262527  0.48285435  0.01408991    -0.11800
C618        C  0.26697665  0.48598263  0.99282865     0.02100
H619        H  0.19070112  0.98160946  0.97824801     0.15100
H620        H  0.28238029  0.48111157  0.02334305     0.15100
C621        C  0.29803569  0.48696389  0.98425087     0.36700
C622        C  0.17261602  0.97519159  0.01724295     0.36600
N623        N  0.32291360  0.48760906  0.97748123    -0.43600
N624        N  0.14635046  0.97216795  0.02344268    -0.43600
C625        C  0.50822041  0.24723532  0.02320851     0.00000
C626        C  0.47837260  0.24391170  0.01295613    -0.11900
C627        C  0.47583337  0.24163287  0.99159419     0.02200
C628        C  0.50343698  0.24219342  0.97991021    -0.00100
C629        C  0.03076703  0.24543292  0.98998542    -0.11800
C630        C  0.03327480  0.24773670  0.01139766     0.02100
H631        H  0.45693031  0.24343749  0.02166297     0.15100
H632        H  0.05111037  0.24374289  0.98130804     0.15100
C633        C  0.06245641  0.24651173  0.02109142     0.36700
C634        C  0.44411565  0.23791442  0.98220172     0.36600
N635        N  0.08582529  0.24549478  0.02884615    -0.43600
N636        N  0.41870729  0.23499320  0.97471301    -0.43600
C637        C  0.00331437  0.40797259  0.08620733     0.00000
C638        C  0.03651469  0.40991085  0.08699312    -0.11900
C639        C  0.03936887  0.37927361  0.08615047     0.02200
C640        C  0.00833336  0.34548037  0.08487145    -0.00100
C641        C  0.47982490  0.34571166  0.07815403    -0.11800
C642        C  0.47742029  0.37654502  0.07898654     0.02100
H643        H  0.06059981  0.43558315  0.08803372     0.15100
H644        H  0.45761722  0.32154676  0.07207039     0.15100
C645        C  0.44556381  0.37472630  0.07110587     0.36700
C646        C  0.07456814  0.38380663  0.08634331     0.36600
N647        N  0.42001750  0.37315118  0.06474152    -0.43600
N648        N  0.10291480  0.38781544  0.08635671    -0.43600
C649        C  0.00856049  0.09539631  0.08142891     0.00000
C650        C  0.47766146  0.09484349  0.09094257    -0.11900
C651        C  0.47698294  0.12666614  0.09221735     0.02200
C652        C  0.00658998  0.15945270  0.08390325    -0.00100
C653        C  0.03845444  0.15999519  0.07964523    -0.11800
C654        C  0.03976925  0.12858430  0.07832425     0.02100
H655        H  0.45448670  0.07030284  0.09574302     0.15100
H656        H  0.06259643  0.18514168  0.07709533     0.15100
C657        C  0.07359496  0.13168640  0.07353736     0.36700
C658        C  0.44530070  0.12519772  0.10015516     0.36600
N659        N  0.10078608  0.13441001  0.06968283    -0.43600
N660        N  0.41989003  0.12393939  0.10651973    -0.43600
C661        C  0.99068797  0.48617745  0.97937531     0.00000
C662        C  0.02079718  0.98910171  0.98667289    -0.11900
C663        C  0.02518578  0.99229237  0.00797729     0.02200
C664        C  0.99656735  0.49080526  0.02267609    -0.00100
C665        C  0.47299288  0.49220360  0.01363055    -0.11800
C666        C  0.46940089  0.49010647  0.99229290     0.02100
H667        H  0.04077449  0.98782155  0.97738297     0.15100
H668        H  0.45245628  0.49268380  0.02278588     0.15100
C669        C  0.43768475  0.48745024  0.98357582     0.36700
C670        C  0.05556502  0.99213362  0.01670432     0.36600
N671        N  0.41222514  0.48527984  0.97663724    -0.43600
N672        N  0.07986236  0.99189977  0.02368709    -0.43600
C673        C  0.26735405  0.27869871  0.52005187     0.00000
C674        C  0.26725504  0.30736420  0.51012974    -0.11900
C675        C  0.26918102  0.31043714  0.48865912     0.02200
C676        C  0.27191143  0.28477698  0.47668463    -0.00100
C677        C  0.27338142  0.25692354  0.48673306    -0.11800
C678        C  0.27120037  0.25369247  0.50809391     0.02100
H679        H  0.26432810  0.32675239  0.51913296     0.15100
H680        H  0.27596166  0.23724430  0.47780224     0.15100
C681        C  0.27393530  0.22491286  0.51728487     0.36700
C682        C  0.26557178  0.33860884  0.47946405     0.36600
N683        N  0.27625963  0.20190033  0.52459852    -0.43600
N684        N  0.26217481  0.36119126  0.47249332    -0.43600
C685        C  0.24557502  0.98984694  0.47945911     0.00000
C686        C  0.22779338  0.45714272  0.48948169    -0.11900
C687        C  0.22552842  0.45450552  0.51086933     0.02200
C688        C  0.24251170  0.98477089  0.52294375    -0.00100
C689        C  0.25511016  0.01769336  0.51307641    -0.11800
C690        C  0.25669220  0.02054826  0.49172368     0.02100
H691        H  0.21225997  0.43330656  0.48041228     0.15100
H692        H  0.26383224  0.04166142  0.52209567     0.15100
C693        C  0.26959534  0.05551247  0.48308741     0.36700
C694        C  0.20260045  0.41981838  0.51960754     0.36600
N695        N  0.27993482  0.08361509  0.47629653    -0.43600
N696        N  0.18422237  0.39188389  0.52643736    -0.43600
C697        C  0.01090817  0.27402962  0.52310620     0.00000
C698        C  0.51738070  0.30814580  0.51349195    -0.11900
C699        C  0.51848775  0.31072269  0.49201827     0.02200
C700        C  0.01449633  0.28025495  0.47984344    -0.00100
C701        C  0.00951596  0.24917082  0.48946057    -0.11800
C702        C  0.00759772  0.24573065  0.51075262     0.02100
H703        H  0.52017422  0.33036884  0.52254705     0.15100
H704        H  0.00730843  0.22729855  0.48028648     0.15100
C705        C  0.00301024  0.21300918  0.51930909     0.36700
C706        C  0.52291814  0.34296420  0.48288342     0.36600
N707        N  0.99924583  0.18670250  0.52605627    -0.43600
N708        N  0.52650378  0.36886454  0.47562487    -0.43600
C709        C  0.42453661  0.28167046  0.41569496     0.00000
C710        C  0.39295736  0.24955958  0.41944775    -0.11900
C711        C  0.35995394  0.24763126  0.41908558     0.02200
C712        C  0.35774285  0.27819739  0.41423248    -0.00100
C713        C  0.38933449  0.31038109  0.41052302    -0.11800
C714        C  0.42247341  0.31255173  0.41145987     0.02100
H715        H  0.39396612  0.22573018  0.42315141     0.15100
H716        H  0.38829690  0.33428219  0.40707746     0.15100
C717        C  0.45360802  0.34699332  0.40827277     0.36700
C718        C  0.32925259  0.21423724  0.42473100     0.36600
N719        N  0.47843067  0.37472763  0.40588552    -0.43600
N720        N  0.30480110  0.18751818  0.42947241    -0.43600
C721        C  0.17445929  0.28155898  0.41783613     0.00000
C722        C  0.14282931  0.24970104  0.42187803    -0.11900
C723        C  0.11023341  0.24861521  0.42280660     0.02200
C724        C  0.10863503  0.27996612  0.41942660    -0.00100
C725        C  0.14032187  0.31198742  0.41590408    -0.11800
C726        C  0.17294792  0.31315297  0.41508193     0.02100
H727        H  0.14342166  0.22533073  0.42437145     0.15100
H728        H  0.13966535  0.33633363  0.41341645     0.15100
C729        C  0.20391327  0.34725571  0.41095970     0.36700
C730        C  0.07920881  0.21494927  0.42765787     0.36600
N731        N  0.22826906  0.37484076  0.40752339    -0.43600
N732        N  0.05447250  0.18792152  0.43161864    -0.43600
C733        C  0.99623175  0.98878754  0.47635521     0.00000
C734        C  0.01404652  0.02071464  0.48749774    -0.11900
C735        C  0.01476499  0.02109194  0.50887461     0.02200
C736        C  0.99741718  0.98871521  0.51995257    -0.00100
C737        C  0.48518045  0.45569211  0.51120279    -0.11800
C738        C  0.48595060  0.45557070  0.48967422     0.02100
H739        H  0.02769802  0.04594624  0.47948218     0.15100
H740        H  0.47857083  0.43145396  0.51942006     0.15100
C741        C  0.47754128  0.42275682  0.47943575     0.36700
C742        C  0.03354945  0.05550051  0.51872956     0.36600
N743        N  0.47064466  0.39639145  0.47126143    -0.43600
N744        N  0.04857959  0.08316517  0.52649658    -0.43600
C745        C  0.40887508  0.00047223  0.41647484     0.00000
C746        C  0.37801378  0.46341259  0.42191940    -0.11900
C747        C  0.34497346  0.46143393  0.42244107     0.02200
C748        C  0.34118285  0.99514960  0.41651822    -0.00100
C749        C  0.37226875  0.02803746  0.41975365    -0.11800
C750        C  0.40579123  0.03104824  0.41964914     0.02100
H751        H  0.37980259  0.44033333  0.42645003     0.15100
H752        H  0.37052308  0.05176819  0.42242086     0.15100
C753        C  0.43624582  0.06598560  0.42278099     0.36700
C754        C  0.31502516  0.42861294  0.42936652     0.36600
N755        N  0.46052614  0.09408374  0.42521262    -0.43600
N756        N  0.29130492  0.40210121  0.43496749    -0.43600
C757        C  0.09220962  0.99726071  0.41509380     0.00000
C758        C  0.09296416  0.46358675  0.41754695    -0.11900
C759        C  0.12381723  0.46125138  0.41747137     0.02200
C760        C  0.15512975  0.99325576  0.41712163    -0.00100
C761        C  0.15650936  0.02578306  0.41325843    -0.11800
C762        C  0.12566561  0.02807947  0.41216023     0.02100
H763        H  0.06752396  0.43918656  0.41675698     0.15100
H764        H  0.18189374  0.04971267  0.41082155     0.15100
C765        C  0.12946132  0.06232302  0.40748657     0.36700
C766        C  0.11967047  0.42615855  0.41613380     0.36600
N767        N  0.13278818  0.08986827  0.40372285    -0.43600
N768        N  0.11609889  0.39794483  0.41504060    -0.43600
C769        C  0.22813822  0.23084514  0.18738584     0.00000
C770        C  0.25989851  0.24158219  0.17662053    -0.11900
C771        C  0.26093424  0.24168757  0.15520789     0.02200
C772        C  0.22953539  0.23095904  0.14379909    -0.00100
C773        C  0.19755102  0.21940647  0.15450504    -0.11800
C774        C  0.19651942  0.21915595  0.17601591     0.02100
H775        H  0.28441051  0.25016112  0.18497041     0.15100
H776        H  0.17313878  0.21082440  0.14604927     0.15100
C777        C  0.16268153  0.20723429  0.18580161     0.36700
C778        C  0.29471483  0.25249933  0.14557327     0.36600
N779        N  0.13544311  0.19753888  0.19353525    -0.43600
N780        N  0.32179844  0.26113689  0.13790346    -0.43600
C781        C  0.24513229  0.25838865  0.31013033     0.00000
C782        C  0.22154349  0.23166515  0.32337797    -0.11900
C783        C  0.22527724  0.23585525  0.34468039     0.02200
C784        C  0.25313525  0.26771730  0.35331056    -0.00100
C785        C  0.27590816  0.29508857  0.33996615    -0.11800
C786        C  0.27220360  0.29068934  0.31859112     0.02100
H787        H  0.20044865  0.20697786  0.31705526     0.15100
H788        H  0.29697019  0.31984594  0.34621015     0.15100
C789        C  0.29581627  0.32019295  0.30571453     0.36700
C790        C  0.19958714  0.20686654  0.35712156     0.36600
N791        N  0.31458587  0.34384476  0.29536561    -0.43600
N792        N  0.17893478  0.18349726  0.36697560    -0.43600
C793        C  0.23256312  0.33277243  0.24551486     0.00000
C794        C  0.26430322  0.36431274  0.24122234    -0.11900
C795        C  0.26644689  0.39741957  0.24245297     0.02200
C796        C  0.23612167  0.39954682  0.24792554    -0.00100
C797        C  0.20402761  0.36794111  0.25150248    -0.11800
C798        C  0.20197044  0.33481244  0.25050975     0.02100
H799        H  0.28793229  0.36329194  0.23720656     0.15100
H800        H  0.18048352  0.36905945  0.25561904     0.15100
C801        C  0.16841327  0.30389956  0.25565543     0.36700
C802        C  0.30028994  0.42848260  0.23799145     0.36600
N803        N  0.14149641  0.27939273  0.26001719    -0.43600
N804        N  0.32750243  0.45327561  0.23446874    -0.43600
C805        C  0.23720362  0.15019620  0.25374454     0.00000
C806        C  0.26995121  0.15134102  0.25228227    -0.11900
C807        C  0.27194915  0.12016273  0.25203545     0.02200
C808        C  0.24049543  0.08659295  0.25306028    -0.00100
C809        C  0.20788003  0.08552209  0.25511849    -0.11800
C810        C  0.20589391  0.11662921  0.25561554     0.02100
H811        H  0.29428123  0.17676827  0.25109827     0.15100
H812        H  0.18350495  0.06012432  0.25629900     0.15100
C813        C  0.17114651  0.11273160  0.25808830     0.36700
C814        C  0.30673669  0.12385190  0.25064819     0.36600
N815        N  0.14320587  0.10930544  0.26013680    -0.43600
N816        N  0.33468717  0.12698064  0.24960731    -0.43600
C817        C  0.22711345  0.98282444  0.14581595     0.00000
C818        C  0.26068528  0.50943534  0.15643691    -0.11900
C819        C  0.26306985  0.51304054  0.17772166     0.02200
C820        C  0.23257090  0.99015427  0.18909965    -0.00100
C821        C  0.20094137  0.96417877  0.17977851    -0.11800
C822        C  0.19800767  0.96022623  0.15838761     0.02100
H823        H  0.28373827  0.52680783  0.14727733     0.15100
H824        H  0.17858885  0.94628395  0.18924277     0.15100
C825        C  0.16534821  0.93193648  0.14993473     0.36700
C826        C  0.29643205  0.53990929  0.18633193     0.36600
N827        N  0.13919036  0.90916669  0.14320246    -0.43600
N828        N  0.32321275  0.56132590  0.19320817    -0.43600
C829        C  0.24598165  0.99537014  0.35598142     0.00000
C830        C  0.27667279  0.01859546  0.34504011    -0.11900
C831        C  0.27683850  0.01870274  0.32354292     0.02200
C832        C  0.24549030  0.99549978  0.31259222    -0.00100
C833        C  0.21502433  0.46685027  0.32417652    -0.11800
C834        C  0.21587572  0.46565651  0.34557546     0.02100
H835        H  0.30078811  0.03626121  0.35332191     0.15100
H836        H  0.19216978  0.44635174  0.31605630     0.15100
C837        C  0.18526705  0.43783479  0.35600548     0.36700
C838        C  0.30947485  0.04326520  0.31332603     0.36600
N839        N  0.16068542  0.41561901  0.36434426    -0.43600
N840        N  0.33572512  0.06295896  0.30522451    -0.43600
C841        C  0.01313093  0.26312566  0.18969756     0.00000
C842        C  0.48227279  0.24260667  0.18011089    -0.11900
C843        C  0.48040748  0.23752347  0.15886628     0.02200
C844        C  0.00924410  0.25535424  0.14639341    -0.00100
C845        C  0.04180903  0.27726007  0.15620801    -0.11800
C846        C  0.04412356  0.28113725  0.17753048     0.02100
H847        H  0.45944293  0.22513760  0.18938890     0.15100
H848        H  0.06578473  0.29179719  0.14718025     0.15100
C849        C  0.07882326  0.30393619  0.18623753     0.36700
C850        C  0.44810062  0.20865954  0.15043040     0.36600
N851        N  0.10671256  0.32209364  0.19312880    -0.43600
N852        N  0.42222239  0.18545063  0.14372007    -0.43600
C853        C  0.01626585  0.27843489  0.31290225     0.00000
C854        C  0.49083650  0.24900330  0.32386059    -0.11900
C855        C  0.48999232  0.24876927  0.34529690     0.02200
C856        C  0.01606813  0.27952292  0.35630793    -0.00100
C857        C  0.04128601  0.30919409  0.34518410    -0.11800
C858        C  0.04161697  0.30888151  0.32367968     0.02100
H859        H  0.46936728  0.22727429  0.31552952     0.15100
H860        H  0.06095903  0.33264300  0.35327653     0.15100
C861        C  0.06732119  0.34063527  0.31310138     0.36700
C862        C  0.45979137  0.21965285  0.35525313     0.36600
N863        N  0.08777963  0.36614343  0.30462528    -0.43600
N864        N  0.43556604  0.19625750  0.36316447    -0.43600
C865        C  0.50965906  0.42761550  0.24856131     0.00000
C866        C  0.47973871  0.39650880  0.25554946    -0.11900
C867        C  0.47959023  0.36425948  0.25647847     0.02200
C868        C  0.01013275  0.36149164  0.24828503    -0.00100
C869        C  0.04239483  0.39369631  0.24688978    -0.11800
C870        C  0.04357510  0.42639056  0.24690884     0.02100
H871        H  0.45665275  0.39755642  0.26088712     0.15100
H872        H  0.06719972  0.39352590  0.24590945     0.15100
C873        C  0.07809871  0.45801445  0.24533152     0.36700
C874        C  0.44853213  0.33374810  0.26479917     0.36600
N875        N  0.10585085  0.48319361  0.24407363    -0.43600
N876        N  0.42359953  0.30942383  0.27152395    -0.43600
C877        C  0.01890107  0.18094236  0.25320220     0.00000
C878        C  0.49000390  0.15225360  0.24469091    -0.11900
C879        C  0.48888896  0.11960732  0.24385500     0.02200
C880        C  0.51924089  0.11754289  0.24924037    -0.00100
C881        C  0.04545696  0.14550497  0.24311673    -0.11800
C882        C  0.04654527  0.17823819  0.24358730     0.02100
H883        H  0.46645422  0.15327989  0.24044985     0.15100
H884        H  0.06649484  0.14358183  0.23539178     0.15100
C885        C  0.07511312  0.20783153  0.23290062     0.36700
C886        C  0.45633606  0.08905539  0.23696680     0.36600
N887        N  0.09785806  0.23135291  0.22413965    -0.43600
N888        N  0.43019899  0.06469648  0.23141365    -0.43600
C889        C  0.00535171  0.50964430  0.14610060     0.00000
C890        C  0.04591620  0.03637479  0.15277394    -0.11900
C891        C  0.04838769  0.04181587  0.17408162     0.02200
C892        C  0.01098976  0.51981855  0.18935280    -0.00100
C893        C  0.47951294  0.49246496  0.18018868    -0.11800
C894        C  0.47818582  0.48689227  0.15901893     0.02100
H895        H  0.06868786  0.05319069  0.14327213     0.15100
H896        H  0.45688248  0.47443972  0.18945496     0.15100
C897        C  0.44668077  0.45676136  0.15072775     0.36700
C898        C  0.08130345  0.06980327  0.18244413     0.36600
N899        N  0.42142107  0.43248215  0.14422187    -0.43600
N900        N  0.10773100  0.09230571  0.18907125    -0.43600
C901        C  0.00660736  0.00891331  0.35320140     0.00000
C902        C  0.48079023  0.47952048  0.34400504    -0.11900
C903        C  0.48085591  0.48207520  0.32266490     0.02200
C904        C  0.01032105  0.01417476  0.30987739    -0.00100
C905        C  0.03676612  0.04093814  0.32207393    -0.11800
C906        C  0.03502501  0.03876958  0.34351972     0.02100
H907        H  0.45875855  0.45704889  0.35150335     0.15100
H908        H  0.05871108  0.06386057  0.31483906     0.15100
C909        C  0.06334237  0.06720049  0.35506135     0.36700
C910        C  0.45233676  0.45319293  0.31145863     0.36600
N911        N  0.08607136  0.09011228  0.36421734    -0.43600
N912        N  0.42959199  0.42991288  0.30251794    -0.43600
O913        O  0.04507445  0.99314201  0.24847382    -0.71700
O914        O  0.04072539  0.57801242  0.25226322    -0.71900
O915        O  0.03925636  0.53240405  0.28067427    -0.71700
O916        O  0.04063753  0.53539419  0.22225565    -0.71700
O917        O  0.49280854  0.01097350  0.22073471    -0.71700
O918        O  0.48821981  0.00933862  0.27837377    -0.71700
O919        O  0.48242673  0.55024691  0.25304161    -0.71700
O920        O  0.49114357  0.96697103  0.24955089    -0.71800
V921        V  0.03905112  0.53372704  0.25146736     1.35200
V922        V  0.49185245  0.01097481  0.24956277     1.35200
C923        C  0.52003178  0.96673391  0.25052107     0.77600
C924        C  0.51158610  0.57928488  0.25352813     0.77600
C925        C  0.01007582  0.51551767  0.29019042     0.77500
C926        C  0.01193792  0.52193025  0.21218118     0.77500
O927        O  0.04461795  0.83045331  0.24813519    -0.71700
O928        O  0.04674695  0.74447742  0.25340478    -0.71900
O929        O  0.04504922  0.78295659  0.22191871    -0.71700
O930        O  0.04646567  0.79223750  0.27986158    -0.71700
O931        O  0.48995627  0.76184220  0.27970637    -0.71700
O932        O  0.48917993  0.75626802  0.22170480    -0.71700
O933        O  0.48980139  0.71600636  0.25240257    -0.71700
O934        O  0.48919208  0.80260012  0.24909673    -0.71800
V935        V  0.04466785  0.78698565  0.25087233     1.35200
V936        V  0.49065326  0.75983543  0.25070870     1.35200
C937        C  0.01542359  0.83015629  0.24801514     0.77600
C938        C  0.01819708  0.71484171  0.25374085     0.77600
C939        C  0.01599228  0.76692358  0.21229932     0.77500
C940        C  0.01781060  0.77786155  0.28992350     0.77500
O941        O  0.26726431  0.96347651  0.24867271    -0.71700
O942        O  0.26760425  0.55090505  0.25113248    -0.71900
O943        O  0.26919437  0.50775494  0.27975833    -0.71700
O944        O  0.26430186  0.50609851  0.22191728    -0.71700
O945        O  0.20729315  0.97804818  0.22278587    -0.71700
O946        O  0.21377284  0.98005018  0.28085805    -0.71700
O947        O  0.21025987  0.52292264  0.25347475    -0.71700
O948        O  0.20986212  0.93518693  0.25124230    -0.71800
V949        V  0.26559591  0.50638555  0.25084511     1.35200
V950        V  0.21166607  0.97965415  0.25180637     1.35200
C951        C  0.23829809  0.93435928  0.24928316     0.77600
C952        C  0.23926554  0.55203220  0.25238031     0.77600
C953        C  0.24135957  0.49342152  0.29050150     0.77500
C954        C  0.23490065  0.49241160  0.21268845     0.77500
O955        O  0.20687143  0.77067328  0.24815781    -0.71700
O956        O  0.20803571  0.68444884  0.25121010    -0.71900
O957        O  0.20992916  0.73143423  0.27876341    -0.71700
O958        O  0.20543341  0.72409124  0.22048990    -0.71700
O959        O  0.26286032  0.75204191  0.21924661    -0.71700
O960        O  0.26738568  0.76244462  0.27696507    -0.71700
O961        O  0.26552453  0.71371664  0.25065442    -0.71700
O962        O  0.26426883  0.80011382  0.24563988    -0.71800
V963        V  0.20865947  0.72818338  0.24960367     1.35200
V964        V  0.26389792  0.75643259  0.24814421     1.35200
C965        C  0.23529201  0.80012299  0.24668883     0.77600
C966        C  0.23686849  0.68420776  0.25159986     0.77600
C967        C  0.23955108  0.74918994  0.28771372     0.77500
C968        C  0.23350961  0.73681642  0.20988517     0.77500
O969        O  0.02923772  0.96915426  0.41283253    -0.71700
O970        O  0.44436416  0.97288577  0.41464291    -0.71900
O971        O  0.49066793  0.98032057  0.38535958    -0.71700
O972        O  0.48521801  0.96615732  0.44307071    -0.71700
O973        O  0.01214654  0.52168061  0.44724232    -0.71700
O974        O  0.01983076  0.52885317  0.38952234    -0.71700
O975        O  0.47222850  0.52431988  0.41753925    -0.71700
O976        O  0.05948693  0.52542581  0.41964925    -0.71800
V977        V  0.48846508  0.97428983  0.41424603     1.35200
V978        V  0.01535124  0.52407261  0.41834549     1.35200
C979        C  0.06032549  0.49683446  0.41830417     0.77600
C980        C  0.44310819  0.49539834  0.41633786     0.77600
C981        C  0.00619712  0.50131965  0.37843384     0.77500
C982        C  0.99721740  0.49181571  0.45610757     0.77500
O983        O  0.04281097  0.74767525  0.41754096    -0.71700
O984        O  0.45652550  0.74697057  0.41638826    -0.71900
O985        O  0.50080739  0.74625870  0.38822220    -0.71700
O986        O  0.49865925  0.74700839  0.44632053    -0.71700
O987        O  0.02952072  0.80672581  0.44680478    -0.71700
O988        O  0.03155331  0.80724324  0.38857665    -0.71700
O989        O  0.48554886  0.80460121  0.41636137    -0.71700
O990        O  0.07339569  0.80528986  0.41831402    -0.71800
V991        V  0.50025133  0.74769099  0.41727236     1.35200
V992        V  0.02993998  0.80584728  0.41769557     1.35200
C993        C  0.07268195  0.77577166  0.41789484     0.77600
C994        C  0.45608203  0.77582250  0.41600631     0.77600
C995        C  0.01586825  0.77843121  0.37858043     0.77500
C996        C  0.01474965  0.77781818  0.45668627     0.77500
O997        O  0.26417192  0.51981569  0.44710897    -0.71700
O998        O  0.26376994  0.52069006  0.38893635    -0.71900
O999        O  0.22076457  0.52072230  0.41826101    -0.71700
O1000       O  0.30744925  0.52001556  0.41773820    -0.71700
O1001       O  0.27730199  0.96495779  0.41636489    -0.71700
O1002       O  0.18966695  0.96404575  0.41772977    -0.71700
O1003       O  0.23271516  0.96559628  0.38810018    -0.71700
O1004       O  0.23361249  0.96291399  0.44616594    -0.71800
V1005       V  0.26353109  0.51921588  0.41801582     1.35200
V1006       V  0.23393697  0.96547887  0.41711694     1.35200
C1007       C  0.25004680  0.49080581  0.45689734     0.77600
C1008       C  0.24780958  0.49188224  0.37896351     0.77600
C1009       C  0.19130102  0.49200974  0.41843890     0.77500
C1010       C  0.30781109  0.49109258  0.41726446     0.77500
O1011       O  0.29009071  0.74098417  0.41462687    -0.71700
O1012       O  0.20368014  0.74267467  0.41770260    -0.71900
O1013       O  0.24201660  0.73747550  0.38729537    -0.71700
O1014       O  0.25118664  0.74540351  0.44487827    -0.71700
O1015       O  0.28150384  0.80287277  0.44274346    -0.71700
O1016       O  0.27042451  0.79494384  0.38453912    -0.71700
O1017       O  0.23343684  0.80028049  0.41588636    -0.71700
O1018       O  0.31902256  0.79833972  0.41151205    -0.71800
V1019       V  0.24734230  0.74276014  0.41605798     1.35200
V1020       V  0.27555699  0.79801813  0.41367077     1.35200
C1021       C  0.31950536  0.76957593  0.41291719     0.77600
C1022       C  0.20392873  0.77195571  0.41747849     0.77600
C1023       C  0.25376933  0.76463898  0.37602801     0.77500
C1024       C  0.26806790  0.77517427  0.45377991     0.77500
O1025       O  0.03619089  0.97290651  0.08217169    -0.71700
O1026       O  0.02934942  0.55709331  0.08159539    -0.71900
O1027       O  0.03191231  0.51856866  0.11276482    -0.71700
O1028       O  0.02802950  0.50969459  0.05467363    -0.71700
O1029       O  0.47434627  0.98481613  0.05597565    -0.71700
O1030       O  0.48291367  0.98922751  0.11382844    -0.71700
O1031       O  0.47808790  0.53060054  0.08413605    -0.71700
O1032       O  0.47888386  0.94344960  0.08482371    -0.71800
V1033       V  0.02891292  0.51355844  0.08373608     1.35200
V1034       V  0.47981973  0.98759675  0.08489235     1.35200
C1035       C  0.00738271  0.94369241  0.08336725     0.77600
C1036       C  0.00052628  0.55736558  0.08204542     0.77600
C1037       C  0.01212986  0.00683689  0.12085554     0.77500
C1038       C  0.00285039  0.99763538  0.04297635     0.77500
O1039       O  0.48039851  0.69506535  0.08391253    -0.71700
O1040       O  0.48295677  0.78322610  0.08410125    -0.71900
O1041       O  0.48113337  0.73899034  0.05492763    -0.71700
O1042       O  0.48255982  0.73957068  0.11308808    -0.71700
O1043       O  0.03589604  0.76586633  0.11349733    -0.71700
O1044       O  0.03381401  0.76286858  0.05545921    -0.71700
O1045       O  0.03707720  0.80924580  0.08399738    -0.71700
O1046       O  0.03233612  0.71967064  0.08490628    -0.71800
V1047       V  0.48290224  0.73975017  0.08400214     1.35200
V1048       V  0.03369188  0.76392865  0.08449214     1.35200
C1049       C  0.00271401  0.69114188  0.08498331     0.77600
C1050       C  0.00906135  0.81115309  0.08450807     0.77600
C1051       C  0.50966755  0.75199324  0.04478274     0.77500
C1052       C  0.51150340  0.75390181  0.12287741     0.77500
O1053       O  0.19975132  0.96527073  0.05448367    -0.71700
O1054       O  0.19776856  0.96537626  0.11293640    -0.71900
O1055       O  0.20174566  0.51024658  0.08441391    -0.71700
O1056       O  0.19850986  0.92159255  0.08386782    -0.71700
O1057       O  0.25600570  0.95046238  0.08468646    -0.71700
O1058       O  0.25920764  0.53874175  0.08484655    -0.71700
O1059       O  0.25788983  0.49558755  0.11442077    -0.71700
O1060       O  0.25981451  0.49446426  0.05656600    -0.71800
V1061       V  0.19970435  0.96575543  0.08370634     1.35200
V1062       V  0.25763656  0.49436651  0.08548017     1.35200
C1063       C  0.23150711  0.48076529  0.04623267     0.77600
C1064       C  0.22894405  0.48178689  0.12414791     0.77600
C1065       C  0.23055947  0.53947449  0.08432519     0.77500
C1066       C  0.22723250  0.92108151  0.08405150     0.77500
O1067       O  0.20428670  0.71688716  0.05257604    -0.71700
O1068       O  0.20535740  0.71876564  0.11083713    -0.71900
O1069       O  0.20398731  0.76097055  0.08129376    -0.71700
O1070       O  0.20558336  0.67478085  0.08207374    -0.71700
O1071       O  0.26304159  0.70430131  0.08257226    -0.71700
O1072       O  0.26144064  0.79056879  0.08010339    -0.71700
O1073       O  0.26275725  0.74956428  0.11037987    -0.71700
O1074       O  0.26185096  0.74506083  0.05232663    -0.71800
V1075       V  0.20589810  0.71842422  0.08168718     1.35200
V1076       V  0.26116499  0.74685106  0.08135267     1.35200
C1077       C  0.23294396  0.73011092  0.04252785     0.77600
C1078       C  0.23431750  0.73465254  0.12061964     0.77600
C1079       C  0.23244096  0.79057469  0.08046147     0.77500
C1080       C  0.23455381  0.67471893  0.08252287     0.77500
O1081       O  0.01704448  0.54403610  0.91825215    -0.71700
O1082       O  0.42797086  0.95669199  0.91685572    -0.71900
O1083       O  0.47760462  0.50138863  0.94768284    -0.71700
O1084       O  0.47348253  0.49978892  0.88943100    -0.71700
O1085       O  0.00246562  0.97263903  0.88607243    -0.71700
O1086       O  0.00361229  0.97242010  0.94430839    -0.71700
O1087       O  0.45826454  0.92943323  0.91613130    -0.71700
O1088       O  0.04534209  0.51489473  0.91631638    -0.71800
V1089       V  0.47599921  0.49997708  0.91856752     1.35200
V1090       V  0.00226268  0.97283869  0.91521289     1.35200
C1091       C  0.04616673  0.54435972  0.91700546     0.77600
C1092       C  0.42852184  0.92787609  0.91638866     0.77600
C1093       C  0.98923324  0.98663063  0.95448854     0.77500
C1094       C  0.98861312  0.98786749  0.87639696     0.77500
O1095       O  0.48879182  0.75985192  0.94586275    -0.71700
O1096       O  0.48661417  0.75662116  0.88784041    -0.71900
O1097       O  0.44377089  0.71493587  0.91765440    -0.71700
O1098       O  0.02991166  0.80066714  0.91871447    -0.71700
O1099       O  0.05714969  0.77038254  0.91776537    -0.71700
O1100       O  0.47176061  0.68544097  0.91787345    -0.71700
O1101       O  0.01220548  0.72735149  0.88887826    -0.71700
O1102       O  0.01351780  0.72777017  0.94718801    -0.71800
V1103       V  0.48827183  0.75761362  0.91684318     1.35200
V1104       V  0.01244252  0.72813583  0.91801288     1.35200
C1105       C  0.50305614  0.74561335  0.95604279     0.77600
C1106       C  0.50014678  0.74136691  0.87792470     0.77600
C1107       C  0.44270706  0.68529507  0.91794559     0.77500
C1108       C  0.05868152  0.80018995  0.91804065     0.77500
O1109       O  0.22086169  0.93272305  0.91771143    -0.71700
O1110       O  0.30629027  0.52492607  0.91974830    -0.71900
O1111       O  0.26251786  0.97498915  0.94763720    -0.71700
O1112       O  0.26709547  0.97660167  0.88956521    -0.71700
O1113       O  0.23704432  0.51248068  0.88980021    -0.71700
O1114       O  0.23102433  0.50705554  0.94797466    -0.71700
O1115       O  0.27747423  0.55359436  0.92059163    -0.71700
O1116       O  0.19328780  0.96265804  0.91609599    -0.71800
V1117       V  0.26438474  0.97647385  0.91859819     1.35200
V1118       V  0.23465790  0.50937955  0.91889408     1.35200
C1119       C  0.19199022  0.93299941  0.91690454     0.77600
C1120       C  0.30680468  0.55429159  0.92016894     0.77600
C1121       C  0.24630922  0.98806204  0.95704598     0.77500
C1122       C  0.25469328  0.99247370  0.87922846     0.77500
O1123       O  0.26561394  0.79556941  0.91661227    -0.71700
O1124       O  0.17821454  0.70885194  0.91430298    -0.71900
O1125       O  0.22066828  0.74927651  0.94447316    -0.71700
O1126       O  0.22294192  0.75517504  0.88653510    -0.71700
O1127       O  0.25131667  0.72609189  0.88527409    -0.71700
O1128       O  0.24917754  0.72021925  0.94340856    -0.71700
O1129       O  0.20662371  0.67977139  0.91310595    -0.71700
O1130       O  0.29400745  0.76638409  0.91549343    -0.71800
V1131       V  0.22243591  0.75166684  0.91547998     1.35200
V1132       V  0.24973103  0.72365826  0.91434359     1.35200
C1133       C  0.29473077  0.79581038  0.91599499     0.77600
C1134       C  0.17743438  0.67941016  0.91349650     0.77600
C1135       C  0.23400499  0.73333022  0.95385195     0.77500
C1136       C  0.23775268  0.74194952  0.87593963     0.77500
O1137       O  0.01048782  0.51818952  0.55510549    -0.71700
O1138       O  0.01083241  0.51834619  0.61293791    -0.71900
O1139       O  0.05367975  0.51694313  0.58381665    -0.71700
O1140       O  0.46609400  0.51601709  0.58386787    -0.71700
O1141       O  0.43540454  0.95491443  0.58355977    -0.71700
O1142       O  0.02380542  0.95793578  0.58249637    -0.71700
O1143       O  0.47946767  0.95483878  0.61237593    -0.71700
O1144       O  0.47815052  0.95461165  0.55381808    -0.71800
V1145       V  0.01007489  0.51697517  0.58400016     1.35200
V1146       V  0.47933198  0.95568739  0.58312312     1.35200
C1147       C  0.99495316  0.48964850  0.54495608     0.77600
C1148       C  0.99711720  0.48962696  0.62290850     0.77600
C1149       C  0.05341859  0.48767641  0.58298309     0.77500
C1150       C  0.43656781  0.48740543  0.58423554     0.77500
O1151       O  0.45936990  0.73731997  0.58447355    -0.71700
O1152       O  0.04819713  0.74082261  0.58357662    -0.71900
O1153       O  0.50419198  0.73459284  0.61151131    -0.71700
O1154       O  0.50124962  0.74014878  0.55372064    -0.71700
O1155       O  0.03272245  0.79943819  0.55616553    -0.71700
O1156       O  0.03250321  0.79634848  0.61443521    -0.71700
O1157       O  0.07643511  0.79839897  0.58486351    -0.71700
O1158       O  0.48799793  0.79494733  0.58496344    -0.71800
V1159       V  0.50349130  0.73859598  0.58263825     1.35200
V1160       V  0.03227401  0.79689077  0.58528172     1.35200
C1161       C  0.45872864  0.76610781  0.58508683     0.77600
C1162       C  0.07739169  0.76985247  0.58400727     0.77600
C1163       C  0.01805174  0.76688187  0.62378276     0.77500
C1164       C  0.01781128  0.77104386  0.54570850     0.77500
O1165       O  0.25929278  0.51356388  0.55584011    -0.71700
O1166       O  0.25786664  0.51423795  0.61386851    -0.71900
O1167       O  0.30148264  0.51290857  0.58534256    -0.71700
O1168       O  0.21570782  0.51487240  0.58425162    -0.71700
O1169       O  0.18688883  0.95854406  0.58622661    -0.71700
O1170       O  0.27210128  0.95526707  0.58416107    -0.71700
O1171       O  0.23194268  0.95829457  0.61429841    -0.71700
O1172       O  0.22745088  0.95587903  0.55601045    -0.71800
V1173       V  0.25798975  0.51274777  0.58484105     1.35200
V1174       V  0.23012192  0.95807426  0.58516997     1.35200
C1175       C  0.24406991  0.48473608  0.54585588     0.77600
C1176       C  0.24396925  0.48552138  0.62390369     0.77600
C1177       C  0.30151482  0.48382735  0.58496405     0.77500
C1178       C  0.18604105  0.48652012  0.58460083     0.77500
O1179       O  0.21112444  0.73991244  0.58022682    -0.71700
O1180       O  0.29881726  0.74174355  0.58242522    -0.71900
O1181       O  0.25180074  0.73801953  0.61010350    -0.71700
O1182       O  0.25785300  0.74333704  0.55238953    -0.71700
O1183       O  0.28596320  0.80087124  0.55365186    -0.71700
O1184       O  0.27904197  0.79562009  0.61201773    -0.71700
O1185       O  0.32672701  0.79927866  0.58430937    -0.71700
O1186       O  0.23888260  0.79747734  0.58164312    -0.71800
V1187       V  0.25552561  0.74193530  0.58127527     1.35200
V1188       V  0.28222872  0.79728058  0.58285392     1.35200
C1189       C  0.20987481  0.76832091  0.58094317     0.77600
C1190       C  0.32782552  0.77074974  0.58389650     0.77600
C1191       C  0.26357335  0.76573017  0.62095294     0.77500
C1192       C  0.27256024  0.77265940  0.54299847     0.77500
O1193       O  0.46641151  0.93832600  0.75151747    -0.71700
O1194       O  0.05389830  0.52482126  0.75061086    -0.71900
O1195       O  0.01293134  0.98345781  0.77782878    -0.71700
O1196       O  0.01116564  0.98135908  0.71966720    -0.71700
O1197       O  0.48794719  0.51028223  0.72171417    -0.71700
O1198       O  0.48368162  0.50771384  0.77996398    -0.71700
O1199       O  0.02509852  0.55354008  0.75079121    -0.71700
O1200       O  0.43770706  0.96701438  0.74920941    -0.71800
V1201       V  0.01164049  0.98312805  0.74874416     1.35200
V1202       V  0.48644369  0.50854396  0.75083521     1.35200
C1203       C  0.43719146  0.93771329  0.75017770     0.77600
C1204       C  0.05441666  0.55416799  0.75066344     0.77600
C1205       C  0.99516486  0.49460397  0.78959063     0.77500
C1206       C  0.99655757  0.49538754  0.71151098     0.77500
O1207       O  0.44478817  0.71443374  0.74918851    -0.71700
O1208       O  0.03439623  0.80632274  0.75372594    -0.71900
O1209       O  0.48938565  0.76000858  0.72091937    -0.71700
O1210       O  0.48732881  0.75596810  0.77911754    -0.71700
O1211       O  0.01417479  0.72970929  0.77963960    -0.71700
O1212       O  0.01876701  0.73621551  0.72176564    -0.71700
O1213       O  0.06120289  0.77567968  0.75251109    -0.71700
O1214       O  0.47322226  0.68526401  0.74886114    -0.71800
V1215       V  0.48871843  0.75734834  0.75000546     1.35200
V1216       V  0.01591180  0.73365501  0.75070823     1.35200
C1217       C  0.44404462  0.68501284  0.74917387     0.77600
C1218       C  0.06301990  0.80566126  0.75376071     0.77600
C1219       C  0.00705753  0.75344519  0.71219412     0.77500
C1220       C  0.99976036  0.74357177  0.79002883     0.77500
O1221       O  0.19792891  0.96648515  0.75188340    -0.71700
O1222       O  0.28103546  0.55337871  0.75081555    -0.71900
O1223       O  0.23613158  0.50864895  0.72249502    -0.71700
O1224       O  0.23732634  0.51166949  0.78043048    -0.71700
O1225       O  0.27259200  0.98461142  0.78012927    -0.71700
O1226       O  0.26852337  0.98143229  0.72199630    -0.71700
O1227       O  0.30864164  0.52339313  0.75049575    -0.71700
O1228       O  0.22776146  0.93878178  0.75224399    -0.71800
V1229       V  0.23738466  0.50953062  0.75146940     1.35200
V1230       V  0.27009694  0.98362579  0.75103019     1.35200
C1231       C  0.19811523  0.93746295  0.75235893     0.77600
C1232       C  0.30992065  0.55305176  0.75017292     0.77600
C1233       C  0.25374964  0.99564321  0.71224500     0.77500
C1234       C  0.25705050  0.99771840  0.79023468     0.77500
O1235       O  0.25849820  0.73481184  0.77671412    -0.71700
O1236       O  0.25693485  0.73387966  0.71875159    -0.71900
O1237       O  0.30103003  0.77780419  0.74732397    -0.71700
O1238       O  0.21415588  0.69076801  0.74830426    -0.71700
O1239       O  0.18536952  0.71951360  0.74778928    -0.71700
O1240       O  0.27245020  0.80670792  0.74839417    -0.71700
O1241       O  0.22964305  0.76416880  0.71886790    -0.71700
O1242       O  0.22870753  0.76248219  0.77716348    -0.71800
V1243       V  0.25704365  0.73484800  0.74775262     1.35200
V1244       V  0.22950357  0.76261978  0.74801758     1.35200
C1245       C  0.24381651  0.74858506  0.78693475     0.77600
C1246       C  0.24389878  0.74961646  0.70887731     0.77600
C1247       C  0.30167093  0.80720190  0.74792053     0.77500
C1248       C  0.18486080  0.69018322  0.74846194     0.77500
C1249       C  0.40973565  0.65127509  0.74966297     0.00000
C1250       C  0.40696602  0.62093257  0.74022363    -0.11900
C1251       C  0.37469980  0.58873851  0.73999635     0.02200
C1252       C  0.34441297  0.58654185  0.74944451    -0.00100
C1253       C  0.34727235  0.61684214  0.75893898    -0.11800
C1254       C  0.37952982  0.64888892  0.75931490     0.02100
H1255       H  0.42991480  0.62251079  0.73270082     0.15100
H1256       H  0.32440661  0.61527299  0.76656627     0.15100
C1257       C  0.38116008  0.67830586  0.77062142     0.36700
C1258       C  0.37323158  0.55884637  0.72933502     0.36600
N1259       N  0.38255729  0.70182363  0.77977205    -0.43600
N1260       N  0.37200264  0.53489131  0.72077698    -0.43600
C1261       C  0.09771509  0.83926459  0.75464652     0.00000
C1262       C  0.12847640  0.83883342  0.74864085    -0.11900
C1263       C  0.16142267  0.87024389  0.74771108     0.02200
C1264       C  0.16424805  0.90307517  0.75326621    -0.00100
C1265       C  0.13363562  0.90336006  0.75968994    -0.11800
C1266       C  0.10067752  0.87212453  0.76038340     0.02100
H1267       H  0.12665973  0.81399725  0.74397252     0.15100
H1268       H  0.13534980  0.92823034  0.76418690     0.15100
C1269       C  0.07061367  0.87500655  0.76713308     0.36700
C1270       C  0.19119547  0.86796116  0.73984885     0.36600
N1271       N  0.04661637  0.87751549  0.77247213    -0.43600
N1272       N  0.21479186  0.86589425  0.73331101    -0.43600
C1273       C  0.33596624  0.84105188  0.74820546     0.00000
C1274       C  0.36734684  0.83964075  0.74600587    -0.11900
C1275       C  0.40059853  0.87048877  0.74654407     0.02200
C1276       C  0.40300047  0.90387119  0.74957423    -0.00100
C1277       C  0.37165480  0.90531517  0.75158297    -0.11800
C1278       C  0.33842761  0.87455847  0.75083858     0.02100
H1279       H  0.36604016  0.81426774  0.74372064     0.15100
H1280       H  0.37297281  0.93071286  0.75379859     0.15100
C1281       C  0.30772905  0.87874508  0.75297359     0.36700
C1282       C  0.43142229  0.86677836  0.74339520     0.36600
N1283       N  0.28344015  0.88261189  0.75471174    -0.43600
N1284       N  0.45597492  0.86359921  0.74078711    -0.43600
C1285       C  0.08826124  0.58856565  0.75051593     0.00000
C1286       C  0.08737680  0.61989306  0.75464826    -0.11900
C1287       C  0.11829871  0.65320046  0.75440621     0.02200
C1288       C  0.15112177  0.65578547  0.74942646    -0.00100
C1289       C  0.15206858  0.62443117  0.74561025    -0.11800
C1290       C  0.12130136  0.59109927  0.74624979     0.02100
H1291       H  0.06240011  0.61842476  0.75838459     0.15100
H1292       H  0.17706271  0.62584900  0.74199425     0.15100
C1293       C  0.12481559  0.56027834  0.74226488     0.36700
C1294       C  0.11542286  0.68381464  0.76012233     0.36600
N1295       N  0.12784552  0.53568606  0.73916561    -0.43600
N1296       N  0.11294592  0.70816736  0.76487709    -0.43600
C1297       C  0.25866599  0.76247305  0.64349267     0.00000
C1298       C  0.25471163  0.73170404  0.65302852    -0.11900
C1299       C  0.24896730  0.72648469  0.67414181     0.02200
C1300       C  0.24690498  0.75237830  0.68625766    -0.00100
C1301       C  0.24995299  0.78275109  0.67668040    -0.11800
C1302       C  0.25590310  0.78804555  0.65552983     0.02100
H1303       H  0.25623406  0.71157729  0.64395393     0.15100
H1304       H  0.24836045  0.80279560  0.68579600     0.15100
C1305       C  0.25791300  0.81935247  0.64655868     0.36700
C1306       C  0.24434701  0.69381193  0.68277870     0.36600
N1307       N  0.25944727  0.84436009  0.63928271    -0.43600
N1308       N  0.24059298  0.66757561  0.68962905    -0.43600
C1309       C  0.25240025  0.99448827  0.68956445     0.00000
C1310       C  0.25130986  0.46464114  0.67974369    -0.11900
C1311       C  0.24968112  0.46191909  0.65830741     0.02200
C1312       C  0.24892820  0.98931309  0.64635576    -0.00100
C1313       C  0.24660685  0.01667795  0.65638414    -0.11800
C1314       C  0.24818665  0.01944952  0.67777130     0.02100
H1315       H  0.25536025  0.44581798  0.68855033     0.15100
H1316       H  0.24331723  0.03589132  0.64746614     0.15100
C1317       C  0.24648160  0.04881184  0.68701138     0.36700
C1318       C  0.25473806  0.43484500  0.64869639     0.36600
N1319       N  0.24515937  0.07240218  0.69434638    -0.43600
N1320       N  0.25886419  0.41331703  0.64081638    -0.43600
C1321       C  0.36184825  0.77062773  0.58501035     0.00000
C1322       C  0.36046781  0.73758477  0.58538758    -0.11900
C1323       C  0.39129772  0.73524413  0.58582909     0.02200
C1324       C  0.42488152  0.76661267  0.58567051    -0.00100
C1325       C  0.42631502  0.79971698  0.58577663    -0.11800
C1326       C  0.39542692  0.80206449  0.58557065     0.02100
H1327       H  0.33502771  0.71313225  0.58530428     0.15100
H1328       H  0.45178959  0.82414088  0.58592279     0.15100
C1329       C  0.39944498  0.83717028  0.58593931     0.36700
C1330       C  0.38719751  0.70013631  0.58651604     0.36600
N1331       N  0.40297039  0.86541350  0.58632517    -0.43600
N1332       N  0.38369875  0.67192156  0.58714044    -0.43600
C1333       C  0.11166291  0.77016478  0.58337543     0.00000
C1334       C  0.11100128  0.73748774  0.58272749    -0.11900
C1335       C  0.14230320  0.73597008  0.58190185     0.02200
C1336       C  0.17554647  0.76784470  0.58142443    -0.00100
C1337       C  0.17620726  0.80050183  0.58217069    -0.11800
C1338       C  0.14496058  0.80202739  0.58329466     0.02100
H1339       H  0.08581140  0.71275395  0.58298187     0.15100
H1340       H  0.20139690  0.82525147  0.58207451     0.15100
C1341       C  0.14840834  0.83684471  0.58457595     0.36700
C1342       C  0.13908527  0.70120177  0.58191845     0.36600
N1343       N  0.15144744  0.86484226  0.58569260    -0.43600
N1344       N  0.13636659  0.67328927  0.58202638    -0.43600
C1345       C  0.01648421  0.76477805  0.64650989     0.00000
C1346       C  0.51123123  0.72845786  0.65425653    -0.11900
C1347       C  0.50757056  0.72344445  0.67549559     0.02200
C1348       C  0.00987834  0.75657178  0.68961371    -0.00100
C1349       C  0.01575122  0.78823897  0.68037079    -0.11800
C1350       C  0.01940310  0.79272938  0.65906623     0.02100
H1351       H  0.51139046  0.70804279  0.64475000     0.15100
H1352       H  0.01792961  0.80976587  0.68985658     0.15100
C1353       C  0.02533687  0.82600769  0.65063967     0.36700
C1354       C  0.50324682  0.69065200  0.68375571     0.36600
N1355       N  0.03019681  0.85275007  0.64394440    -0.43600
N1356       N  0.49971287  0.66432443  0.69032235    -0.43600
C1357       C  0.33560813  0.48380584  0.58473416     0.00000
C1358       C  0.36733279  0.51672007  0.58382131    -0.11900
C1359       C  0.40040445  0.51880035  0.58356542     0.02200
C1360       C  0.40240133  0.48729143  0.58427196    -0.00100
C1361       C  0.36976914  0.95284569  0.57888608    -0.11800
C1362       C  0.33706849  0.95168710  0.57884951     0.02100
H1363       H  0.36646327  0.54122565  0.58326430     0.15100
H1364       H  0.37062973  0.92910931  0.57471082     0.15100
C1365       C  0.30595905  0.91850527  0.57326784     0.36700
C1366       C  0.43151663  0.55378276  0.58253558     0.36600
N1367       N  0.28115192  0.89180114  0.56884671    -0.43600
N1368       N  0.45629862  0.58190803  0.58170625    -0.43600
C1369       C  0.15244465  0.48745528  0.58412683     0.00000
C1370       C  0.12153227  0.95625943  0.58835497    -0.11900
C1371       C  0.08871607  0.95476669  0.58787927     0.02200
C1372       C  0.08705219  0.48677820  0.58274604    -0.00100
C1373       C  0.11876643  0.51818172  0.58735383    -0.11800
C1374       C  0.15117135  0.51886796  0.58807864     0.02100
H1375       H  0.12204521  0.93182307  0.59082397     0.15100
H1376       H  0.11830974  0.54242023  0.59070078     0.15100
C1377       C  0.18233663  0.55218006  0.59337079     0.36700
C1378       C  0.05733425  0.92049627  0.59102851     0.36600
N1379       N  0.20722020  0.57895137  0.59758968    -0.43600
N1380       N  0.03234650  0.89293795  0.59355356    -0.43600
C1381       C  0.99714361  0.49052356  0.64553266     0.00000
C1382       C  0.50456603  0.52042824  0.65597608    -0.11900
C1383       C  0.50630080  0.52317200  0.67738973     0.02200
C1384       C  0.99663207  0.49453209  0.68878702    -0.00100
C1385       C  0.99390871  0.96471173  0.67731133    -0.11800
C1386       C  0.99180838  0.96110137  0.65592888     0.02100
H1387       H  0.50845422  0.54314049  0.64704793     0.15100
H1388       H  0.99324186  0.94363568  0.68653220     0.15100
C1389       C  0.98900788  0.92927530  0.64709927     0.36700
C1390       C  0.51389636  0.55648789  0.68666536     0.36600
N1391       N  0.98652255  0.90365411  0.64004713    -0.43600
N1392       N  0.51994715  0.58314833  0.69412012    -0.43600
C1393       C  0.23958251  0.74498496  0.85320233     0.00000
C1394       C  0.25932794  0.73261938  0.84255086    -0.11900
C1395       C  0.26175136  0.73409339  0.82117365     0.02200
C1396       C  0.24380218  0.74801765  0.80974155    -0.00100
C1397       C  0.22470260  0.76115649  0.82040311    -0.11800
C1398       C  0.22248500  0.75989549  0.84183224     0.02100
H1399       H  0.27311137  0.72162787  0.85095484     0.15100
H1400       H  0.21101254  0.77221757  0.81196897     0.15100
C1401       C  0.20212317  0.77384494  0.85148444     0.36700
C1402       C  0.28306249  0.72112449  0.81164658     0.36600
N1403       N  0.18581623  0.78511522  0.85912068    -0.43600
N1404       N  0.30020411  0.71073320  0.80410918    -0.43600
C1405       C  0.25648477  0.99687860  0.81302626     0.00000
C1406       C  0.27669404  0.98471087  0.82339299    -0.11900
C1407       C  0.27647087  0.98260354  0.84483134     0.02200
C1408       C  0.25612017  0.99349255  0.85647219    -0.00100
C1409       C  0.23211696  0.50984598  0.84647419    -0.11800
C1410       C  0.23149701  0.51017855  0.82501922     0.02100
H1411       H  0.29264291  0.97651008  0.81473267     0.15100
H1412       H  0.21546206  0.51744784  0.85489492     0.15100
C1413       C  0.20871395  0.52120029  0.81537187     0.36700
C1414       C  0.29732167  0.96902805  0.85424139     0.36600
N1415       N  0.19049002  0.53019658  0.80777839    -0.43600
N1416       N  0.31388588  0.95789951  0.86167866    -0.43600
C1417       C  0.34109491  0.58833460  0.91977883     0.00000
C1418       C  0.37257802  0.58684998  0.92003068    -0.11900
C1419       C  0.40579150  0.61768987  0.91904983     0.02200
C1420       C  0.40822906  0.65143520  0.91838874    -0.00100
C1421       C  0.37674220  0.65295077  0.91797890    -0.11800
C1422       C  0.34346166  0.62199157  0.91836519     0.02100
H1423       H  0.37139514  0.56133370  0.92070329     0.15100
H1424       H  0.37798845  0.67847846  0.91706848     0.15100
C1425       C  0.31255759  0.62595648  0.91660094     0.36700
C1426       C  0.43654393  0.61331719  0.91826090     0.36600
N1427       N  0.28794545  0.62933657  0.91499007    -0.43600
N1428       N  0.46100502  0.60954679  0.91744722    -0.43600
C1429       C  0.09314197  0.83381058  0.91760760     0.00000
C1430       C  0.09445330  0.86504925  0.92457461    -0.11900
C1431       C  0.12618421  0.89760707  0.92446926     0.02200
C1432       C  0.15760313  0.89940318  0.91713803    -0.00100
C1433       C  0.15635280  0.86820227  0.91021490    -0.11800
C1434       C  0.12459592  0.83564245  0.91027682     0.02100
H1435       H  0.07063854  0.86401998  0.93041407     0.15100
H1436       H  0.18023744  0.86929886  0.90444162     0.15100
C1437       C  0.12512772  0.80503058  0.90203983     0.36700
C1438       C  0.12574644  0.92828105  0.93272244     0.36600
N1439       N  0.12569945  0.78062728  0.89535876    -0.43600
N1440       N  0.12532045  0.95277862  0.93938143    -0.43600
C1441       C  0.99712042  0.74186298  0.85632832     0.00000
C1442       C  0.52187695  0.73124782  0.84465130    -0.11900
C1443       C  0.52332496  0.73133479  0.82318749     0.02200
C1444       C  0.99810965  0.74117326  0.81280334    -0.00100
C1445       C  0.98179154  0.75727714  0.82345004    -0.11800
C1446       C  0.98079028  0.75747204  0.84487510     0.02100
H1447       H  0.53903545  0.72459128  0.85327481     0.15100
H1448       H  0.96968312  0.76995273  0.81501652     0.15100
C1449       C  0.96230988  0.77357252  0.85442514     0.36700
C1450       C  0.54841696  0.72318777  0.81373128     0.36600
N1451       N  0.94726996  0.78630618  0.86197596    -0.43600
N1452       N  0.56867494  0.71678875  0.80624119    -0.43600
C1453       C  0.32888472  0.82960317  0.91567333     0.00000
C1454       C  0.35923245  0.83020218  0.92344694    -0.11900
C1455       C  0.39215232  0.86160848  0.92354032     0.02200
C1456       C  0.39495020  0.89342734  0.91598898    -0.00100
C1457       C  0.36470767  0.89258481  0.90784636    -0.11800
C1458       C  0.33203544  0.86104371  0.90731632     0.02100
H1459       H  0.35719973  0.80609366  0.92965316     0.15100
H1460       H  0.36672609  0.91656440  0.90144116     0.15100
C1461       C  0.30285458  0.86140460  0.89701475     0.36700
C1462       C  0.42219972  0.86031670  0.93188221     0.36600
N1463       N  0.27961888  0.86162860  0.88855328    -0.43600
N1464       N  0.44619126  0.85903428  0.93848621    -0.43600
C1465       C  0.08012435  0.57852317  0.91601392     0.00000
C1466       C  0.07907305  0.60979761  0.91213877    -0.11900
C1467       C  0.11014703  0.64286629  0.91101545     0.02200
C1468       C  0.14347145  0.64515773  0.91363956    -0.00100
C1469       C  0.14451215  0.61381538  0.91729138    -0.11800
C1470       C  0.11343749  0.58083029  0.91866380     0.02100
H1471       H  0.05378081  0.60852269  0.90993243     0.15100
H1472       H  0.16976922  0.61505512  0.91958941     0.15100
C1473       C  0.11689201  0.55030269  0.92360071     0.36700
C1474       C  0.10662201  0.67367507  0.90710056     0.36600
N1475       N  0.11988862  0.52602727  0.92769985    -0.43600
N1476       N  0.10354047  0.69822983  0.90403711    -0.43600
C1477       C  0.98839943  0.48974472  0.85581207     0.00000
C1478       C  0.01969191  0.99177997  0.84373524    -0.11900
C1479       C  0.02327205  0.99512721  0.82239120     0.02200
C1480       C  0.99358323  0.49279319  0.81236723    -0.00100
C1481       C  0.46964240  0.49596696  0.82285994    -0.11800
C1482       C  0.46577243  0.49341232  0.84426252     0.02100
H1483       H  0.04045420  0.99137095  0.85270068     0.15100
H1484       H  0.45125163  0.50030966  0.81382455     0.15100
C1485       C  0.43697470  0.49624638  0.85324916     0.36700
C1486       C  0.05535654  0.99929256  0.81326766     0.36600
N1487       N  0.41380504  0.49845227  0.86036594    -0.43600
N1488       N  0.08119144  0.00292887  0.80597579    -0.43600
C1489       C  0.23261186  0.72870906  0.01984894     0.00000
C1490       C  0.20495219  0.72949794  0.00930059    -0.19100
C1491       C  0.20454086  0.73046968  0.98786568     0.02200
C1492       C  0.23218676  0.73041264  0.97650298    -0.00100
C1493       C  0.25896083  0.72791956  0.98704197    -0.11800
C1494       C  0.25948349  0.72719568  0.00849903     0.02100
H1495       H  0.18389993  0.73010445  0.01783797     0.15100
H1496       H  0.27997347  0.72722497  0.97851557     0.15100
C1497       C  0.28742791  0.72400526  0.01838869     0.36700
C1498       C  0.17496870  0.73074654  0.97802910     0.36600
N1499       N  0.30977894  0.72135327  0.02628650    -0.43600
N1500       N  0.15122901  0.73092216  0.97018599    -0.43600
C1501       C  0.22759292  0.88720531  0.08298847     0.00000
C1502       C  0.25924583  0.88842245  0.07718707    -0.11900
C1503       C  0.26141501  0.85747116  0.07575152     0.02200
C1504       C  0.23144655  0.82417909  0.08046987    -0.00100
C1505       C  0.19958019  0.82288424  0.08587441    -0.11800
C1506       C  0.19731526  0.85380990  0.08712840     0.02100
H1507       H  0.28248501  0.91372808  0.07348897     0.15100
H1508       H  0.17628201  0.79757597  0.08948922     0.15100
C1509       C  0.16373442  0.85016533  0.09317416     0.36700
C1510       C  0.29456537  0.86094578  0.06893588     0.36600
N1511       N  0.13671105  0.84694905  0.09800615    -0.43600
N1512       N  0.32116167  0.86390605  0.06340454    -0.43600
C1513       C  0.23097128  0.57376304  0.08365218     0.00000
C1514       C  0.26376080  0.60546648  0.08506807    -0.11900
C1515       C  0.26591507  0.63865154  0.08455330     0.02200
C1516       C  0.23455159  0.64062144  0.08288161    -0.00100
C1517       C  0.20181229  0.60891384  0.08133192    -0.11800
C1518       C  0.19968961  0.57579097  0.08151526     0.02100
H1519       H  0.28805256  0.60446572  0.08653817     0.15100
H1520       H  0.17749481  0.60984416  0.07976144     0.15100
C1521       C  0.16496173  0.54472030  0.07906240     0.36700
C1522       C  0.30077463  0.66987911  0.08563870     0.36600
N1523       N  0.13706981  0.52000546  0.07699460    -0.43600
N1524       N  0.32880926  0.69476130  0.08640889    -0.43600
C1525       C  0.24176774  0.98481903  0.97953143     0.00000
C1526       C  0.21234165  0.48789029  0.99005157    -0.11900
C1527       C  0.20766257  0.48405374  0.01133693     0.02200
C1528       C  0.23326907  0.48194970  0.02358958    -0.00100
C1529       C  0.26209161  0.98186331  0.01372183    -0.11800
C1530       C  0.26726312  0.98410004  0.99253380     0.02100
H1531       H  0.19264762  0.48973270  0.98080705     0.15100
H1532       H  0.28225955  0.98201583  0.02353144     0.15100
C1533       C  0.29948980  0.98664946  0.98471550     0.36700
C1534       C  0.17699140  0.48352349  0.02017516     0.36600
N1535       N  0.32525856  0.98852236  0.97850007    -0.43600
N1536       N  0.15238849  0.48300200  0.02728376    -0.43600
C1537       C  0.50885808  0.75083633  0.02209924     0.00000
C1538       C  0.48154752  0.75281643  0.01190178    -0.11900
C1539       C  0.47924509  0.75151755  0.99048844     0.02200
C1540       C  0.50432707  0.74741548  0.97877182    -0.00100
C1541       C  0.02695330  0.74113984  0.99032355    -0.11800
C1542       C  0.02937687  0.74331358  0.01174592     0.02100
H1543       H  0.46201854  0.75571290  0.02070969     0.15100
H1544       H  0.04693727  0.73877245  0.98167753     0.15100
C1545       C  0.05795368  0.74102575  0.02149025     0.36700
C1546       C  0.45033477  0.75367219  0.98112418     0.36600
N1547       N  0.08084097  0.73918920  0.02929556    -0.43600
N1548       N  0.42719269  0.75552530  0.97369190    -0.43600
C1549       C  0.00752462  0.90966337  0.08427944     0.00000
C1550       C  0.03881574  0.90961310  0.07902819    -0.11900
C1551       C  0.04035660  0.87819995  0.07917656     0.02200
C1552       C  0.00996032  0.84572876  0.08464470    -0.00100
C1553       C  0.48165189  0.84624720  0.07660459    -0.11800
C1554       C  0.47957374  0.87729858  0.07644268     0.02100
H1555       H  0.06219784  0.93419635  0.07448089     0.15100
H1556       H  0.45945530  0.82185534  0.07073740     0.15100
C1557       C  0.44813313  0.87549888  0.06787535     0.36700
C1558       C  0.07325688  0.88029350  0.07313269     0.36600
N1559       N  0.42294427  0.87396205  0.06094865    -0.43600
N1560       N  0.09972057  0.88222171  0.06827103    -0.43600
C1561       C  0.00044224  0.59128546  0.08151911     0.00000
C1562       C  0.47757628  0.59498943  0.08901279    -0.11900
C1563       C  0.47714973  0.62692398  0.08974114     0.02200
C1564       C  0.00096478  0.65636605  0.08408447    -0.00100
C1565       C  0.02931779  0.65479662  0.07497214    -0.11800
C1566       C  0.02919295  0.62269723  0.07344727     0.02100
H1567       H  0.45441078  0.57077387  0.09419425     0.15100
H1568       H  0.05152611  0.67870885  0.06869385     0.15100
C1569       C  0.05845365  0.62279558  0.06294657     0.36700
C1570       C  0.44556859  0.62587151  0.09750977     0.36600
N1571       N  0.08182922  0.62287510  0.05446060    -0.43600
N1572       N  0.42020616  0.62490940  0.10371384    -0.43600
C1573       C  0.99139283  0.98815983  0.97718473     0.00000
C1574       C  0.02112568  0.49004192  0.98917581    -0.11900
C1575       C  0.02437925  0.49250819  0.01059072     0.02200
C1576       C  0.99964536  0.99439286  0.02033345    -0.00100
C1577       C  0.46657610  0.98914371  0.01281412    -0.11800
C1578       C  0.46192363  0.98612714  0.99147736     0.02100
H1579       H  0.04274943  0.49177354  0.98005240     0.15100
H1580       H  0.44581029  0.98841605  0.02232787     0.15100
C1581       C  0.42895801  0.98094317  0.98311386     0.36700
C1582       C  0.05619761  0.49592903  0.01964948     0.36600
N1583       N  0.40248111  0.97667048  0.97644582    -0.43600
N1584       N  0.08168863  0.49860955  0.02687684    -0.43600
C1585       C  0.27320032  0.77352925  0.52011727     0.00000
C1586       C  0.28770541  0.80636463  0.50980498    -0.11900
C1587       C  0.28695014  0.80806053  0.48828240     0.02200
C1588       C  0.27142410  0.77633783  0.47655951    -0.00100
C1589       C  0.25783209  0.74374303  0.48690941    -0.11800
C1590       C  0.25846154  0.74194489  0.50823200     0.02100
H1591       H  0.29924369  0.83088403  0.51857082     0.15100
H1592       H  0.24615204  0.71903855  0.47830358     0.15100
C1593       C  0.24315773  0.70687909  0.51718358     0.36700
C1594       C  0.30176765  0.84264298  0.47882843     0.36600
N1595       N  0.23074649  0.67869509  0.52421935    -0.43600
N1596       N  0.31366231  0.87040045  0.47128500    -0.43600
C1597       C  0.24940441  0.48987548  0.47966659     0.00000
C1598       C  0.23253726  0.95675277  0.48930368    -0.11900
C1599       C  0.23085254  0.95391400  0.51075178     0.02200
C1600       C  0.24515627  0.48527621  0.52306905    -0.00100
C1601       C  0.26692977  0.51794298  0.51323032    -0.11800
C1602       C  0.26936695  0.52052717  0.49186695     0.02100
H1603       H  0.22373861  0.93283361  0.48022960     0.15100
H1604       H  0.28253210  0.54180279  0.52226395     0.15100
C1605       C  0.29320958  0.55496683  0.48312999     0.36700
C1606       C  0.21756565  0.91906031  0.51963794     0.36600
N1607       N  0.31243226  0.58262311  0.47624199    -0.43600
N1608       N  0.20686751  0.89107853  0.52669274    -0.43600
C1609       C  0.01623277  0.77213978  0.52292184     0.00000
C1610       C  0.54198276  0.80069663  0.51177850    -0.11900
C1611       C  0.54223624  0.80304171  0.49036781     0.02200
C1612       C  0.01489958  0.77703630  0.47951100    -0.00100
C1613       C  0.99926928  0.74379190  0.48932700    -0.11800
C1614       C  0.99938119  0.74100104  0.51067843     0.02100
H1615       H  0.56397242  0.82122242  0.52045850     0.15100
H1616       H  0.98666596  0.71956237  0.48028952     0.15100
C1617       C  0.98132410  0.70563580  0.51932725     0.36700
C1618       C  0.57240627  0.83268018  0.48072396     0.36600
N1619       N  0.96655314  0.67721007  0.52611465    -0.43600
N1620       N  0.59665025  0.85644378  0.47306136    -0.43600
C1621       C  0.42157491  0.77513574  0.41508646     0.00000
C1622       C  0.39007928  0.74195204  0.41593921    -0.11900
C1623       C  0.35667560  0.73919020  0.41521013     0.02200
C1624       C  0.35402831  0.77020735  0.41314831    -0.00100
C1625       C  0.38553800  0.80338874  0.41220881    -0.11800
C1626       C  0.41894756  0.80620203  0.41335659     0.02100
H1627       H  0.39138839  0.71775511  0.41745044     0.15100
H1628       H  0.38423095  0.82760994  0.41089139     0.15100
C1629       C  0.44974733  0.84145530  0.41302159     0.36700
C1630       C  0.32590935  0.70412793  0.41709419     0.36600
N1631       N  0.47426353  0.86981165  0.41287290    -0.43600
N1632       N  0.30143617  0.67594581  0.41876011    -0.43600
C1633       C  0.17047437  0.77304149  0.41849538     0.00000
C1634       C  0.13898903  0.74327544  0.41177586    -0.11900
C1635       C  0.10695924  0.74345829  0.41143235     0.02200
C1636       C  0.10592365  0.77407866  0.41794083    -0.00100
C1637       C  0.13739589  0.80372362  0.42488810    -0.11800
C1638       C  0.16937051  0.80337847  0.42539978     0.02100
H1639       H  0.13947195  0.71990478  0.40636197     0.15100
H1640       H  0.13697386  0.82713408  0.43027376     0.15100
C1641       C  0.20018935  0.83403707  0.43386396     0.36700
C1642       C  0.07598028  0.71203893  0.40376436     0.36600
N1643       N  0.22479226  0.85851237  0.44077380    -0.43600
N1644       N  0.05123485  0.68677321  0.39764733    -0.43600
C1645       C  0.99545640  0.49011970  0.47878641     0.00000
C1646       C  0.02016761  0.52019729  0.48975410    -0.11900
C1647       C  0.02035310  0.52077646  0.51112581     0.02200
C1648       C  0.99543708  0.49042924  0.52220617    -0.00100
C1649       C  0.48836699  0.95595713  0.50965462    -0.11800
C1650       C  0.48984379  0.95735789  0.48810744     0.02100
H1651       H  0.03984110  0.54353075  0.48157679     0.15100
H1652       H  0.48523221  0.93248772  0.51741989     0.15100
C1653       C  0.48769150  0.92743238  0.47713919     0.36700
C1654       C  0.04699480  0.55293209  0.52102457     0.36600
N1655       N  0.48608703  0.90346565  0.46838790    -0.43600
N1656       N  0.06830353  0.57884055  0.52882978    -0.43600
C1657       C  0.40877833  0.49481217  0.41610494     0.00000
C1658       C  0.37780657  0.96766121  0.41301613    -0.11900
C1659       C  0.34433478  0.96474649  0.41284084     0.02200
C1660       C  0.34204146  0.49134544  0.41692134    -0.00100
C1661       C  0.37283079  0.52270715  0.41097412    -0.11800
C1662       C  0.40589629  0.52468555  0.41044299     0.02100
H1663       H  0.37953632  0.94394734  0.41025020     0.15100
H1664       H  0.37108869  0.54581515  0.40647035     0.15100
C1665       C  0.43603635  0.55740932  0.40341385     0.36700
C1666       C  0.31407478  0.93027670  0.40834356     0.36600
N1667       N  0.46013246  0.58362948  0.39773290    -0.43600
N1668       N  0.28999636  0.90261839  0.40461259    -0.43600
C1669       C  0.09433162  0.49657961  0.41853076     0.00000
C1670       C  0.09077920  0.96470747  0.41889451    -0.11900
C1671       C  0.12162512  0.96238384  0.41995949     0.02200
C1672       C  0.15743776  0.49259046  0.41849580    -0.00100
C1673       C  0.15884648  0.52563911  0.41944271    -0.11800
C1674       C  0.12793591  0.52797569  0.41943657     0.02100
H1675       H  0.06535177  0.94080897  0.42130814     0.15100
H1676       H  0.18431676  0.55001216  0.42016552     0.15100
C1677       C  0.13193805  0.56305716  0.42022628     0.36700
C1678       C  0.11771961  0.92799033  0.42431394     0.36600
N1679       N  0.13533239  0.59123736  0.42084411    -0.43600
N1680       N  0.11433932  0.90033549  0.42781057    -0.43600
C1681       C  0.23279150  0.73501811  0.18706315     0.00000
C1682       C  0.26465584  0.75610470  0.17639347    -0.11900
C1683       C  0.26594585  0.75659624  0.15496270     0.02200
C1684       C  0.23469379  0.73539427  0.14347156    -0.00100
C1685       C  0.20284089  0.71404726  0.15413190    -0.11800
C1686       C  0.20158882  0.71358381  0.17562110     0.02100
H1687       H  0.28889943  0.77285453  0.18482932     0.15100
H1688       H  0.17864029  0.69733919  0.14565724     0.15100
C1689       C  0.16797018  0.69033180  0.18533148     0.36700
C1690       C  0.29978958  0.77974793  0.14542502     0.36600
N1691       N  0.14095884  0.67160678  0.19302018    -0.43600
N1692       N  0.32698628  0.79837618  0.13789889    -0.43600
C1693       C  0.24188266  0.75434162  0.31021754     0.00000
C1694       C  0.21815040  0.72643061  0.32283784    -0.11900
C1695       C  0.22102359  0.72934728  0.34423579     0.02200
C1696       C  0.24826637  0.76086649  0.35344809    -0.00100
C1697       C  0.27087859  0.78939366  0.34074113    -0.11800
C1698       C  0.26784843  0.78645295  0.31935546     0.02100
H1699       H  0.19767123  0.70196045  0.31595765     0.15100
H1700       H  0.29129736  0.81401148  0.34749770     0.15100
C1701       C  0.29083147  0.81730788  0.30718603     0.36700
C1702       C  0.19501929  0.69976200  0.35619975     0.36600
N1703       N  0.30903794  0.84211842  0.29744572    -0.43600
N1704       N  0.17403090  0.67602307  0.36569476    -0.43600
C1705       C  0.23479164  0.83383547  0.24670210     0.00000
C1706       C  0.26220893  0.86349200  0.23673840    -0.11900
C1707       C  0.26355321  0.89633641  0.23699156     0.02200
C1708       C  0.23750274  0.90006990  0.24782904    -0.00100
C1709       C  0.20974395  0.87026442  0.25745828    -0.11800
C1710       C  0.20809763  0.83732784  0.25697507     0.02100
H1711       H  0.28241532  0.86089946  0.22848669     0.15100
H1712       H  0.18954904  0.87283052  0.26574293     0.15100
C1713       C  0.17944353  0.80810333  0.26786349     0.36700
C1714       C  0.29093287  0.92514378  0.22519485     0.36600
N1715       N  0.15645464  0.78469908  0.27656091    -0.43600
N1716       N  0.31267236  0.94811614  0.21559254    -0.43600
C1717       C  0.23719354  0.65027995  0.25263971     0.00000
C1718       C  0.26843132  0.65036470  0.24721020    -0.11900
C1719       C  0.26990127  0.61894120  0.24690654     0.02200
C1720       C  0.23969348  0.58637438  0.25255280    -0.00100
C1721       C  0.20859471  0.58637434  0.25822491    -0.11800
C1722       C  0.20695917  0.61768882  0.25823640     0.02100
H1723       H  0.29170039  0.67501910  0.24262148     0.15100
H1724       H  0.18520751  0.56168520  0.26264708     0.15100
C1725       C  0.17381560  0.61517584  0.26417172     0.36700
C1726       C  0.30236793  0.62107027  0.23988135     0.36600
N1727       N  0.14710672  0.61285571  0.26886064    -0.43600
N1728       N  0.32838622  0.62294168  0.23412581    -0.43600
C1729       C  0.22921138  0.48404264  0.14682046     0.00000
C1730       C  0.25849536  0.00900565  0.15517369    -0.11900
C1731       C  0.26149138  0.01291082  0.17645379     0.02200
C1732       C  0.23330030  0.49098527  0.19001482    -0.00100
C1733       C  0.20162283  0.46587035  0.18042850    -0.11800
C1734       C  0.19939039  0.46199277  0.15907710     0.02100
H1735       H  0.28098081  0.02691953  0.14579386     0.15100
H1736       H  0.17871270  0.44843615  0.18966709     0.15100
C1737       C  0.16668339  0.43415971  0.15039041     0.36700
C1738       C  0.29446679  0.04110466  0.18468266     0.36600
N1739       N  0.14048741  0.41170472  0.14350458    -0.43600
N1740       N  0.32092060  0.06372149  0.19121017    -0.43600
C1741       C  0.24557046  0.49205470  0.35638350     0.00000
C1742       C  0.27350842  0.51959834  0.34542290    -0.11900
C1743       C  0.27273567  0.52073671  0.32401236     0.02200
C1744       C  0.24334694  0.49392013  0.31314894    -0.00100
C1745       C  0.21460112  0.97293373  0.32372101    -0.11800
C1746       C  0.21461929  0.97263426  0.34515132     0.02100
H1747       H  0.29619475  0.54020904  0.35360592     0.15100
H1748       H  0.19021748  0.95525974  0.31568242     0.15100
C1749       C  0.18168882  0.94972733  0.35565646     0.36700
C1750       C  0.30198420  0.55038140  0.31375496     0.36600
N1751       N  0.15529303  0.93151888  0.36408135    -0.43600
N1752       N  0.32540934  0.57418543  0.30557079    -0.43600
C1753       C  0.01465857  0.76302038  0.18968675     0.00000
C1754       C  0.48395766  0.74569492  0.17912251    -0.11900
C1755       C  0.48132066  0.74086166  0.15785054     0.02200
C1756       C  0.00880776  0.75524415  0.14650798    -0.00100
C1757       C  0.04118493  0.76551587  0.15644254    -0.11800
C1758       C  0.04439718  0.76941269  0.17775649     0.02100
H1759       H  0.45975772  0.73461280  0.18807265     0.15100
H1760       H  0.06427625  0.77058729  0.14752983     0.15100
C1761       C  0.07845978  0.77953308  0.18676186     0.36700
C1762       C  0.44622073  0.72027852  0.14918595     0.36600
N1763       N  0.10587323  0.78770909  0.19382320    -0.43600
N1764       N  0.41804583  0.70357214  0.14234299    -0.43600
C1765       C  0.01762222  0.77937690  0.31249247     0.00000
C1766       C  0.49150450  0.74836225  0.32234046    -0.11900
C1767       C  0.49020861  0.74651082  0.34373745     0.02200
C1768       C  0.01557041  0.77835489  0.35581386    -0.00100
C1769       C  0.03975457  0.80936965  0.34519902    -0.11800
C1770       C  0.04092662  0.81011112  0.32371188     0.02100
H1771       H  0.47127114  0.72636306  0.31352501     0.15100
H1772       H  0.05790107  0.83309932  0.35366348     0.15100
C1773       C  0.06502292  0.84310377  0.31358324     0.36700
C1774       C  0.46125411  0.71533886  0.35307950     0.36600
N1775       N  0.08410989  0.86962032  0.30547338    -0.43600
N1776       N  0.43806631  0.69026499  0.36049359    -0.43600
C1777       C  0.52029594  0.93270014  0.24966121     0.00000
C1778       C  0.48794395  0.90097567  0.24677162    -0.11900
C1779       C  0.48636627  0.86807195  0.24563537     0.02200
C1780       C  0.01454599  0.86378428  0.24648525    -0.00100
C1781       C  0.04601799  0.89525512  0.24157274    -0.11800
C1782       C  0.04719026  0.92799615  0.24082398     0.02100
H1783       H  0.46352652  0.90175947  0.24520890     0.15100
H1784       H  0.06998063  0.89436833  0.23820240     0.15100
C1785       C  0.08004567  0.95885269  0.23460948     0.36700
C1786       C  0.45216834  0.83700684  0.24183968     0.36600
N1787       N  0.10634842  0.98344667  0.22949347    -0.43600
N1788       N  0.42470249  0.81227342  0.23869440    -0.43600
C1789       C  0.01814685  0.68080882  0.25433420     0.00000
C1790       C  0.48704322  0.65124165  0.26080394    -0.11900
C1791       C  0.48425538  0.61776590  0.26111634     0.02200
C1792       C  0.51312398  0.61405808  0.25450757    -0.00100
C1793       C  0.04267304  0.64321950  0.24520083    -0.11800
C1794       C  0.04513946  0.67657447  0.24511246     0.02100
H1795       H  0.46460553  0.65366931  0.26583121     0.15100
H1796       H  0.06332113  0.64020212  0.23779463     0.15100
C1797       C  0.07462627  0.70526312  0.23442999     0.36700
C1798       C  0.45171109  0.58809106  0.26869446     0.36600
N1799       N  0.09826219  0.72801642  0.22575105    -0.43600
N1800       N  0.42557945  0.56446877  0.27482947    -0.43600
C1801       C  0.01426540  0.01020175  0.14356294     0.00000
C1802       C  0.03867360  0.52923754  0.15567257    -0.11900
C1803       C  0.04179079  0.53440672  0.17697756     0.02200
C1804       C  0.01867407  0.02078748  0.18663757    -0.00100
C1805       C  0.48828938  0.99813449  0.17921073    -0.11800
C1806       C  0.48493018  0.99240371  0.15810131     0.02100
H1807       H  0.06263668  0.54060967  0.14648718     0.15100
H1808       H  0.46442826  0.98516642  0.18848066     0.15100
C1809       C  0.44963653  0.96916397  0.15025503     0.36700
C1810       C  0.07699542  0.55474869  0.18551841     0.36600
N1811       N  0.42125936  0.95048077  0.14415387    -0.43600
N1812       N  0.10527871  0.57107064  0.19227755    -0.43600
C1813       C  0.00834486  0.50435566  0.35591517     0.00000
C1814       C  0.48189128  0.99074284  0.34318045    -0.11900
C1815       C  0.48317553  0.99297991  0.32181588     0.02200
C1816       C  0.00889342  0.51100355  0.31279350    -0.00100
C1817       C  0.03912686  0.53350418  0.32444050    -0.11800
C1818       C  0.03907444  0.53041144  0.34580867     0.02100
H1819       H  0.45910689  0.96871385  0.35046701     0.15100
H1820       H  0.06286968  0.55369850  0.31687789     0.15100
C1821       C  0.07132633  0.55331040  0.35691885     0.36700
C1822       C  0.45392515  0.96494071  0.31057528     0.36600
N1823       N  0.09718011  0.57143976  0.36585879    -0.43600
N1824       N  0.43038833  0.94241954  0.30167455    -0.43600
O1825       O  0.53836070  0.49069692  0.25015096    -0.71700
O1826       O  0.54805727  0.08310299  0.24999014    -0.71900
O1827       O  0.54560535  0.03981843  0.28025501    -0.71700
O1828       O  0.55022717  0.03869810  0.22171991    -0.71700
O1829       O  0.98323937  0.50876154  0.22213761    -0.71700
O1830       O  0.98180343  0.50217760  0.27987019    -0.71700
O1831       O  0.98773484  0.05155385  0.24946637    -0.71700
O1832       O  0.98255750  0.46201193  0.24902773    -0.71800
V1833       V  0.54705556  0.03902642  0.25096830     1.35200
V1834       V  0.98379836  0.50631351  0.25103991     1.35200
C1835       C  0.01137547  0.46151581  0.24934530     0.77600
C1836       C  0.01658032  0.08084838  0.25021762     0.77600
C1837       C  0.51582989  0.02380311  0.28926540     0.77500
C1838       C  0.52190708  0.02380403  0.21125329     0.77500
O1839       O  0.54164018  0.33126411  0.25031512    -0.71700
O1840       O  0.54754722  0.24710657  0.25125648    -0.71900
O1841       O  0.54340620  0.28772212  0.22184475    -0.71700
O1842       O  0.54617682  0.29100207  0.27987969    -0.71700
O1843       O  0.98674894  0.25852359  0.28072372    -0.71700
O1844       O  0.98510118  0.25266435  0.22260388    -0.71700
O1845       O  0.98810619  0.21326781  0.25317002    -0.71700
O1846       O  0.98345989  0.29792544  0.25014698    -0.71800
V1847       V  0.54358966  0.28868608  0.25086401     1.35200
V1848       V  0.98694688  0.25620142  0.25166556     1.35200
C1849       C  0.51190098  0.32979145  0.25082306     0.77600
C1850       C  0.51968201  0.21692733  0.25138604     0.77600
C1851       C  0.51432988  0.27155503  0.21228613     0.77500
C1852       C  0.51801166  0.27551237  0.29031707     0.77500
O1853       O  0.77233552  0.46540445  0.24983803    -0.71700
O1854       O  0.76871185  0.05027585  0.24839028    -0.71900
O1855       O  0.77079636  0.00671914  0.27643621    -0.71700
O1856       O  0.76512623  0.00589834  0.21852240    -0.71700
O1857       O  0.71220322  0.47941897  0.22258737    -0.71700
O1858       O  0.71645290  0.47869057  0.28067496    -0.71700
O1859       O  0.71135782  0.02224704  0.25033926    -0.71700
O1860       O  0.71481002  0.43584820  0.25048084    -0.71800
V1861       V  0.76684300  0.00584361  0.24750349     1.35200
V1862       V  0.71549717  0.47980802  0.25162195     1.35200
C1863       C  0.74382393  0.43587160  0.24971413     0.77600
C1864       C  0.74043691  0.05141613  0.25011083     0.77600
C1865       C  0.74312289  0.99285704  0.28733507     0.77500
C1866       C  0.73560688  0.99093566  0.20935215     0.77500
O1867       O  0.71413981  0.27386030  0.24714845    -0.71700
O1868       O  0.71286274  0.18673564  0.25238518    -0.71900
O1869       O  0.71643469  0.23602325  0.27887994    -0.71700
O1870       O  0.71141178  0.22525492  0.22071074    -0.71700
O1871       O  0.76882051  0.25227959  0.21940038    -0.71700
O1872       O  0.77393733  0.26530741  0.27701601    -0.71700
O1873       O  0.77027679  0.21441384  0.25149834    -0.71700
O1874       O  0.77156890  0.30198188  0.24495788    -0.71800
V1875       V  0.71482288  0.23095551  0.24976402     1.35200
V1876       V  0.77004479  0.25785970  0.24825338     1.35200
C1877       C  0.74293975  0.30279496  0.24527250     0.77600
C1878       C  0.74109650  0.18537111  0.25261890     0.77600
C1879       C  0.74619966  0.25349146  0.28776373     0.77500
C1880       C  0.73942501  0.23718683  0.21008919     0.77500
O1881       O  0.53149163  0.46791294  0.41550418    -0.71700
O1882       O  0.94385958  0.46722410  0.41550652    -0.71900
O1883       O  0.99006335  0.47122276  0.38704670    -0.71700
O1884       O  0.98470023  0.46409785  0.44513973    -0.71700
O1885       O  0.51256538  0.02334519  0.44741879    -0.71700
O1886       O  0.52040514  0.03751159  0.38991623    -0.71700
O1887       O  0.97044070  0.02601113  0.41647394    -0.71700
O1888       O  0.55996452  0.03031182  0.41879667    -0.71800
V1889       V  0.98801831  0.46872662  0.41612141     1.35200
V1890       V  0.51583697  0.02922706  0.41860019     1.35200
C1891       C  0.56060015  0.00183943  0.41591685     0.77600
C1892       C  0.94125738  0.99710135  0.41528170     0.77600
C1893       C  0.50687683  0.01130056  0.37779553     0.77500
C1894       C  0.49774829  0.99250872  0.45514379     0.77500
O1895       O  0.54450234  0.25062014  0.41922525    -0.71700
O1896       O  0.95904212  0.25307952  0.41815547    -0.71900
O1897       O  0.00203904  0.25205754  0.38928092    -0.71700
O1898       O  0.00210395  0.25261264  0.44711827    -0.71700
O1899       O  0.52910841  0.31053801  0.44696607    -0.71700
O1900       O  0.53331175  0.30774159  0.38870590    -0.71700
O1901       O  0.98831300  0.31067699  0.41702696    -0.71700
O1902       O  0.57416714  0.30826675  0.41970026    -0.71800
V1903       V  0.00272384  0.25355378  0.41820732     1.35200
V1904       V  0.53066041  0.30810409  0.41784225     1.35200
C1905       C  0.57407294  0.27909659  0.41991218     0.77600
C1906       C  0.95881650  0.28205685  0.41744750     0.77600
C1907       C  0.51755065  0.27837051  0.37920730     0.77500
C1908       C  0.51486082  0.28198722  0.45722102     0.77500
O1909       O  0.76205031  0.02224617  0.44411908    -0.71700
O1910       O  0.76387345  0.02266816  0.38588346    -0.71900
O1911       O  0.72007083  0.02362955  0.41446307    -0.71700
O1912       O  0.80594355  0.02160768  0.41563170    -0.71700
O1913       O  0.77866825  0.46300667  0.41722687    -0.71700
O1914       O  0.69218156  0.46388152  0.41802245    -0.71700
O1915       O  0.73464964  0.46341225  0.38862462    -0.71700
O1916       O  0.73583862  0.46335017  0.44666667    -0.71800
V1917       V  0.76244325  0.02145666  0.41501340     1.35200
V1918       V  0.73594207  0.46454475  0.41764257     1.35200
C1919       C  0.74786534  0.99327077  0.45395134     0.77600
C1920       C  0.74760557  0.99377250  0.37600367     0.77600
C1921       C  0.69041914  0.99515501  0.41479817     0.77500
C1922       C  0.80590741  0.99249762  0.41520574     0.77500
O1923       O  0.79367345  0.24850913  0.41529187    -0.71700
O1924       O  0.70718727  0.24992530  0.41803473    -0.71900
O1925       O  0.74602791  0.24490797  0.38774489    -0.71700
O1926       O  0.75419729  0.25237807  0.44532189    -0.71700
O1927       O  0.78170163  0.30999849  0.44337269    -0.71700
O1928       O  0.77654507  0.30223914  0.38475634    -0.71700
O1929       O  0.73653335  0.30722758  0.41456465    -0.71700
O1930       O  0.82270247  0.30608095  0.41383144    -0.71800
V1931       V  0.75087050  0.25007749  0.41649680     1.35200
V1932       V  0.77890071  0.30533149  0.41412458     1.35200
C1933       C  0.82313168  0.27724987  0.41477401     0.77600
C1934       C  0.70715502  0.27902426  0.41683275     0.77600
C1935       C  0.75936726  0.27188549  0.37627960     0.77500
C1936       C  0.76871598  0.28211474  0.45428560     0.77500
O1937       O  0.53477364  0.47156489  0.08689213    -0.71700
O1938       O  0.53587837  0.05916968  0.08147921    -0.71900
O1939       O  0.54016190  0.01944217  0.11140791    -0.71700
O1940       O  0.53164201  0.01200994  0.05324655    -0.71700
O1941       O  0.97055440  0.48143666  0.05599019    -0.71700
O1942       O  0.97454209  0.48825972  0.11401753    -0.71700
O1943       O  0.97943182  0.03196144  0.08250785    -0.71700
O1944       O  0.97335464  0.44166258  0.08638969    -0.71800
V1945       V  0.53491136  0.01524005  0.08235688     1.35200
V1946       V  0.97368398  0.48536532  0.08498557     1.35200
C1947       C  0.50592848  0.44231650  0.08684876     0.77600
C1948       C  0.50747183  0.06001039  0.08333650     0.77600
C1949       C  0.50732824  0.50557531  0.12400005     0.77500
C1950       C  0.50459779  0.49640290  0.04603297     0.77500
O1951       O  0.97860149  0.19479162  0.08467645    -0.71700
O1952       O  0.98000978  0.28235771  0.08466273    -0.71900
O1953       O  0.97899430  0.23828511  0.05562862    -0.71700
O1954       O  0.97973111  0.23902661  0.11374849    -0.71700
O1955       O  0.53832790  0.26877495  0.11387899    -0.71700
O1956       O  0.53792137  0.26447302  0.05575063    -0.71700
O1957       O  0.53908946  0.31072957  0.08385414    -0.71700
O1958       O  0.53695637  0.22244520  0.08598828    -0.71800
V1959       V  0.98046528  0.23917477  0.08467766     1.35200
V1960       V  0.53699132  0.26605665  0.08484866     1.35200
C1961       C  0.50778413  0.19341677  0.08633195     0.77600
C1962       C  0.51056340  0.31168181  0.08406007     0.77600
C1963       C  0.00762879  0.25153574  0.04558019     0.77500
C1964       C  0.00858060  0.25365416  0.12361536     0.77500
O1965       O  0.70545169  0.47017822  0.05445578    -0.71700
O1966       O  0.70344431  0.46655991  0.11284335    -0.71900
O1967       O  0.70090227  0.00997491  0.08141836    -0.71700
O1968       O  0.70416708  0.42453899  0.08264708    -0.71700
O1969       O  0.76164997  0.45321086  0.08395898    -0.71700
O1970       O  0.75836934  0.03896705  0.08249833    -0.71700
O1971       O  0.75706723  0.99412129  0.11083467    -0.71700
O1972       O  0.76025757  0.99694348  0.05301808    -0.71800
V1973       V  0.70540558  0.46866109  0.08364491     1.35200
V1974       V  0.75740034  0.99490165  0.08189959     1.35200
C1975       C  0.73220987  0.98295593  0.04246105     0.77600
C1976       C  0.72800582  0.97992017  0.12045704     0.77600
C1977       C  0.72954187  0.03935324  0.08216840     0.77500
C1978       C  0.73283529  0.42393568  0.08286745     0.77500
O1979       O  0.70350506  0.21815695  0.05338305    -0.71700
O1980       O  0.70810292  0.22034245  0.11159761    -0.71900
O1981       O  0.70637091  0.26309050  0.08249320    -0.71700
O1982       O  0.70527197  0.17543576  0.08258092    -0.71700
O1983       O  0.76277617  0.20376359  0.08198605    -0.71700
O1984       O  0.76379995  0.29130644  0.08028957    -0.71700
O1985       O  0.76552064  0.24984707  0.11014439    -0.71700
O1986       O  0.76098848  0.24497652  0.05205718    -0.71800
V1987       V  0.70690660  0.21979762  0.08247726     1.35200
V1988       V  0.76215534  0.24695668  0.08111695     1.35200
C1989       C  0.73154203  0.23087006  0.04278689     0.77600
C1990       C  0.73759998  0.23550586  0.12086618     0.77600
C1991       C  0.73531304  0.29219515  0.08142182     0.77500
C1992       C  0.73387226  0.17461939  0.08266569     0.77500
O1993       O  0.51330567  0.04560308  0.91801957    -0.71700
O1994       O  0.92965843  0.45714175  0.91801967    -0.71900
O1995       O  0.97403492  0.00042746  0.94476936    -0.71700
O1996       O  0.97421174  0.00198384  0.88660891    -0.71700
O1997       O  0.50237551  0.47113738  0.88875995    -0.71700
O1998       O  0.50767702  0.47391839  0.94689882    -0.71700
O1999       O  0.95800462  0.42797583  0.91791931    -0.71700
O2000       O  0.54349812  0.01824704  0.91691790    -0.71800
V2001       V  0.97463592  0.00056346  0.91566831     1.35200
V2002       V  0.50423152  0.47290103  0.91781471     1.35200
C2003       C  0.54301365  0.04705393  0.91759820     0.77600
C2004       C  0.92881110  0.42761060  0.91808388     0.77600
C2005       C  0.49349829  0.48812762  0.95725254     0.77500
C2006       C  0.48777364  0.48564190  0.87910719     0.77500
O2007       O  0.98665321  0.25775167  0.94686525    -0.71700
O2008       O  0.98613102  0.25671080  0.88890664    -0.71900
O2009       O  0.94289305  0.21346941  0.91810184    -0.71700
O2010       O  0.52926432  0.29909927  0.91860303    -0.71700
O2011       O  0.55922659  0.27159316  0.91754017    -0.71700
O2012       O  0.97174293  0.18474347  0.91889832    -0.71700
O2013       O  0.51565632  0.22724209  0.88878018    -0.71700
O2014       O  0.51776156  0.22784027  0.94709761    -0.71800
V2015       V  0.98695926  0.25659819  0.91788519     1.35200
V2016       V  0.51601829  0.22787447  0.91793150     1.35200
C2017       C  0.00175160  0.24428756  0.95695042     0.77600
C2018       C  0.99976718  0.24165780  0.87890519     0.77600
C2019       C  0.94246364  0.18416327  0.91874123     0.77500
C2020       C  0.55895707  0.30050702  0.91811536     0.77500
O2021       O  0.71816934  0.43779368  0.91705928    -0.71700
O2022       O  0.80882135  0.02247745  0.91657865    -0.71900
O2023       O  0.76101074  0.48091451  0.94641738    -0.71700
O2024       O  0.76222259  0.48215488  0.88833028    -0.71700
O2025       O  0.73915078  0.00834759  0.88592036    -0.71700
O2026       O  0.73316153  0.00498519  0.94388356    -0.71700
O2027       O  0.77944731  0.05068446  0.91635325    -0.71700
O2028       O  0.68910407  0.46624871  0.91704781    -0.71800
V2029       V  0.76097688  0.48204433  0.91735232     1.35200
V2030       V  0.73687507  0.00628699  0.91490305     1.35200
C2031       C  0.68875820  0.43701935  0.91701667     0.77600
C2032       C  0.80889589  0.05162887  0.91668883     0.77600
C2033       C  0.74584052  0.49446667  0.95642600     0.77500
C2034       C  0.74835578  0.49709764  0.87845296     0.77500
O2035       O  0.76313599  0.29718347  0.91741769    -0.71700
O2036       O  0.67525775  0.21107082  0.91321282    -0.71900
O2037       O  0.71608887  0.25047869  0.94432860    -0.71700
O2038       O  0.72230256  0.25762486  0.88620215    -0.71700
O2039       O  0.74834641  0.22617890  0.88581023    -0.71700
O2040       O  0.74574113  0.22257756  0.94385999    -0.71700
O2041       O  0.70312298  0.18137341  0.91397420    -0.71700
O2042       O  0.79099690  0.26760122  0.91589840    -0.71800
V2043       V  0.71974003  0.25355226  0.91525256     1.35200
V2044       V  0.74651198  0.22501497  0.91486227     1.35200
C2045       C  0.79216502  0.29722188  0.91722638     0.77600
C2046       C  0.67415123  0.18144927  0.91347906     0.77600
C2047       C  0.72993870  0.23528227  0.95403396     0.77500
C2048       C  0.73627064  0.24295983  0.87605615     0.77500
O2049       O  0.50814403  0.01226351  0.55424194    -0.71700
O2050       O  0.50766116  0.01253674  0.61212438    -0.71900
O2051       O  0.55118123  0.01183294  0.58339299    -0.71700
O2052       O  0.96681059  0.01672856  0.58054500    -0.71700
O2053       O  0.93807424  0.46129617  0.58516982    -0.71700
O2054       O  0.52274716  0.45687136  0.58385538    -0.71700
O2055       O  0.98290010  0.46058368  0.61306728    -0.71700
O2056       O  0.97927483  0.46061087  0.55474522    -0.71800
V2057       V  0.50735339  0.01112667  0.58316925     1.35200
V2058       V  0.98154562  0.46153997  0.58392478     1.35200
C2059       C  0.49275797  0.98372951  0.54405102     0.77600
C2060       C  0.49358041  0.98391460  0.62222228     0.77600
C2061       C  0.55152232  0.98288819  0.58319223     0.77500
C2062       C  0.93733595  0.98808460  0.58037058     0.77500
O2063       O  0.94911526  0.23698172  0.58400446    -0.71700
O2064       O  0.53923862  0.24394674  0.58384971    -0.71900
O2065       O  0.99278826  0.23511821  0.61253676    -0.71700
O2066       O  0.99438933  0.24189929  0.55469446    -0.71700
O2067       O  0.52370820  0.30315831  0.55696102    -0.71700
O2068       O  0.52158917  0.29715216  0.61515207    -0.71700
O2069       O  0.56688845  0.30152864  0.58577498    -0.71700
O2070       O  0.97652972  0.29453807  0.58558052    -0.71800
V2071       V  0.99402721  0.23968847  0.58364342     1.35200
V2072       V  0.52213297  0.29908555  0.58603891     1.35200
C2073       C  0.94764058  0.26531330  0.58457424     0.77600
C2074       C  0.56817902  0.27314311  0.58462485     0.77600
C2075       C  0.50753398  0.26728425  0.62404815     0.77500
C2076       C  0.51059273  0.27523491  0.54612172     0.77500
O2077       O  0.75829392  0.01529481  0.55289659    -0.71700
O2078       O  0.76126564  0.01547727  0.61079155    -0.71900
O2079       O  0.80289400  0.01468608  0.58081387    -0.71700
O2080       O  0.71635396  0.01566062  0.58282314    -0.71700
O2081       O  0.68657919  0.45803702  0.58535994    -0.71700
O2082       O  0.77327307  0.45741286  0.58474163    -0.71700
O2083       O  0.73059039  0.45809605  0.61410135    -0.71700
O2084       O  0.72935379  0.45742847  0.55585882    -0.71800
V2085       V  0.75911242  0.01416092  0.58183906     1.35200
V2086       V  0.73048159  0.45880696  0.58499090     1.35200
C2087       C  0.74354818  0.98654920  0.54285211     0.77600
C2088       C  0.74730123  0.98676410  0.62081895     0.77600
C2089       C  0.80298531  0.98560148  0.58056028     0.77500
C2090       C  0.68688646  0.98697646  0.58303803     0.77500
O2091       O  0.69992563  0.24092023  0.58037444    -0.71700
O2092       O  0.78659745  0.24004635  0.58079848    -0.71900
O2093       O  0.74089720  0.23659515  0.60954730    -0.71700
O2094       O  0.74594618  0.24438815  0.55151761    -0.71700
O2095       O  0.77443619  0.30198202  0.55401159    -0.71700
O2096       O  0.77015033  0.29411665  0.61199233    -0.71700
O2097       O  0.81545553  0.29753220  0.58310172    -0.71700
O2098       O  0.72894144  0.29842517  0.58307668    -0.71800
V2099       V  0.74382634  0.24158475  0.58056753     1.35200
V2100       V  0.77167224  0.29688685  0.58298144     1.35200
C2101       C  0.69955228  0.26973986  0.58207578     0.77600
C2102       C  0.81596740  0.26873978  0.58206037     0.77600
C2103       C  0.75463683  0.26412184  0.62071684     0.77500
C2104       C  0.76164683  0.27447925  0.54286945     0.77500
O2105       O  0.96702328  0.43744447  0.75054524    -0.71700
O2106       O  0.55310273  0.02566287  0.74940890    -0.71900
O2107       O  0.51486487  0.48145373  0.78038637    -0.71700
O2108       O  0.51546003  0.48017822  0.72220101    -0.71700
O2109       O  0.98550371  0.01318741  0.71956259    -0.71700
O2110       O  0.98334741  0.01146104  0.77779444    -0.71700
O2111       O  0.52423395  0.05433474  0.74953904    -0.71700
O2112       O  0.93828704  0.46624483  0.75018903    -0.71800
V2113       V  0.51477026  0.48155735  0.75129955     1.35200
V2114       V  0.98509466  0.01188876  0.74867088     1.35200
C2115       C  0.93775531  0.43688449  0.75029331     0.77600
C2116       C  0.55354194  0.05497218  0.74928853     0.77600
C2117       C  0.49521077  0.99830920  0.78907935     0.77500
C2118       C  0.49532798  0.99371319  0.71096427     0.77500
O2119       O  0.94336689  0.21420436  0.75176134    -0.71700
O2120       O  0.53220417  0.30666622  0.75330106    -0.71900
O2121       O  0.98525932  0.25934512  0.72245878    -0.71700
O2122       O  0.98740601  0.25770769  0.78049425    -0.71700
O2123       O  0.51781030  0.23211498  0.77943299    -0.71700
O2124       O  0.51753314  0.23679882  0.72134881    -0.71700
O2125       O  0.56121250  0.27820346  0.75116944    -0.71700
O2126       O  0.97318204  0.18652680  0.74926129    -0.71800
V2127       V  0.98678671  0.25789022  0.75147430     1.35200
V2128       V  0.51706148  0.23496938  0.75040009     1.35200
C2129       C  0.94366133  0.18532263  0.75063227     0.77600
C2130       C  0.56150773  0.30740039  0.75269409     0.77600
C2131       C  0.50375700  0.25266198  0.71232125     0.77500
C2132       C  0.50334330  0.24557270  0.79018750     0.77500
O2133       O  0.69302466  0.47022235  0.75180796    -0.71700
O2134       O  0.78252287  0.05213545  0.74896821    -0.71900
O2135       O  0.74023723  0.00934617  0.71909597    -0.71700
O2136       O  0.73750124  0.00777044  0.77710436    -0.71700
O2137       O  0.76747069  0.48889413  0.78026190    -0.71700
O2138       O  0.76357941  0.48379679  0.72219511    -0.71700
O2139       O  0.81098456  0.02299279  0.74732226    -0.71700
O2140       O  0.72292791  0.44253232  0.75255411    -0.71800
V2141       V  0.73938573  0.00794489  0.74812907     1.35200
V2142       V  0.76514543  0.48700697  0.75119598     1.35200
C2143       C  0.69336801  0.44127311  0.75227414     0.77600
C2144       C  0.81163049  0.05235423  0.74814942     0.77600
C2145       C  0.74840129  0.49726582  0.71213553     0.77500
C2146       C  0.75194870  0.50240999  0.78997560     0.77500
O2147       O  0.75638712  0.23220708  0.77705643    -0.71700
O2148       O  0.75811576  0.23457450  0.71890778    -0.71900
O2149       O  0.80113629  0.27666438  0.74871787    -0.71700
O2150       O  0.71352534  0.19036534  0.74731980    -0.71700
O2151       O  0.68542122  0.21980600  0.74713220    -0.71700
O2152       O  0.77313346  0.30618145  0.74949194    -0.71700
O2153       O  0.73109497  0.26515886  0.71923906    -0.71700
O2154       O  0.72780025  0.26119805  0.77736369    -0.71800
V2155       V  0.75675152  0.23403213  0.74799611     1.35200
V2156       V  0.72986188  0.26248553  0.74828326     1.35200
C2157       C  0.74159022  0.24604648  0.78715960     0.77600
C2158       C  0.74516904  0.25054867  0.70916343     0.77600
C2159       C  0.80215054  0.30624118  0.74951836     0.77500
C2160       C  0.68446414  0.19024755  0.74703752     0.77500
C2161       C  0.91019814  0.15102151  0.75070168     0.00000
C2162       C  0.90659270  0.12398063  0.73742500    -0.11900
C2163       C  0.87463095  0.09165277  0.73626455     0.02200
C2164       C  0.84564143  0.08609700  0.74858259    -0.00100
C2165       C  0.84943839  0.11293861  0.76208714    -0.11800
C2166       C  0.88153233  0.14507445  0.76343749     0.02100
H2167       H  0.92852375  0.12843402  0.72759535     0.15100
H2168       H  0.82755420  0.10842710  0.77197827     0.15100
C2169       C  0.88501687  0.17061704  0.77881252     0.36700
C2170       C  0.87180286  0.06530035  0.72167943     0.36600
N2171       N  0.88797826  0.19091177  0.79128221    -0.43600
N2172       N  0.86947804  0.04420933  0.70995804    -0.43600
C2173       C  0.59526188  0.34164715  0.75335626     0.00000
C2174       C  0.62544696  0.34368318  0.74429616    -0.11900
C2175       C  0.65755458  0.37586362  0.74358502     0.02200
C2176       C  0.66003452  0.40674873  0.75246515    -0.00100
C2177       C  0.62998248  0.40470425  0.76165303    -0.11800
C2178       C  0.59778012  0.37261879  0.76219562     0.02100
H2179       H  0.62371944  0.32027950  0.73717523     0.15100
H2180       H  0.63172493  0.42822804  0.76861863     0.15100
C2181       C  0.56812964  0.37231670  0.77232203     0.36700
C2182       C  0.68681239  0.37675336  0.73260546     0.36600
N2183       N  0.54439408  0.37214829  0.78040920    -0.43600
N2184       N  0.71017051  0.37754649  0.72368517    -0.43600
C2185       C  0.83658370  0.33991440  0.75022672     0.00000
C2186       C  0.86756924  0.33894889  0.74551759    -0.11900
C2187       C  0.90078563  0.36990384  0.74550344     0.02200
C2188       C  0.90352989  0.40296799  0.75028749    -0.00100
C2189       C  0.87258943  0.40387341  0.75520152    -0.11800
C2190       C  0.83940810  0.37291299  0.75531851     0.02100
H2191       H  0.86590088  0.31389036  0.74155106     0.15100
H2192       H  0.87426224  0.42893072  0.75918176     0.15100
C2193       C  0.80910341  0.37606614  0.76118214     0.36700
C2194       C  0.93120625  0.36669448  0.74003612     0.36600
N2195       N  0.78492626  0.37872582  0.76592431    -0.43600
N2196       N  0.95547623  0.36394524  0.73566116    -0.43600
C2197       C  0.58731572  0.08929758  0.74868594     0.00000
C2198       C  0.58642713  0.12024750  0.74347780    -0.11900
C2199       C  0.61748328  0.15340960  0.74263919     0.02200
C2200       C  0.65050227  0.15607467  0.74712005    -0.00100
C2201       C  0.65133012  0.12509935  0.75224977    -0.11800
C2202       C  0.62035484  0.09203218  0.75313395     0.02100
H2203       H  0.56131790  0.11858242  0.73985869     0.15100
H2204       H  0.67637253  0.12667222  0.75593553     0.15100
C2205       C  0.62357547  0.06178411  0.75918051     0.36700
C2206       C  0.61441895  0.18383694  0.73679149     0.36600
N2207       N  0.62634666  0.03766603  0.76403117    -0.43600
N2208       N  0.61175945  0.20809174  0.73209906    -0.43600
C2209       C  0.75250842  0.26116140  0.64342041     0.00000
C2210       C  0.74630522  0.22927039  0.65262460    -0.11900
C2211       C  0.74413279  0.22522121  0.67398067     0.02200
C2212       C  0.74725340  0.25313081  0.68655916    -0.00100
C2213       C  0.75307844  0.28480544  0.67740992    -0.11800
C2214       C  0.75626335  0.28927824  0.65614068     0.02100
H2215       H  0.74352529  0.20750709  0.64313544     0.15100
H2216       H  0.75587957  0.30651347  0.68697197     0.15100
C2217       C  0.76319453  0.32302357  0.64794717     0.36700
C2218       C  0.73783093  0.19186677  0.68250068     0.36600
N2219       N  0.76907843  0.35016627  0.64136557    -0.43600
N2220       N  0.73287960  0.16517127  0.68932078    -0.43600
C2221       C  0.74632296  0.49462727  0.68951918     0.00000
C2222       C  0.74657514  0.96115643  0.67678100    -0.11900
C2223       C  0.74451723  0.95844556  0.65538343     0.02200
C2224       C  0.74409138  0.48830479  0.64639866    -0.00100
C2225       C  0.74105989  0.51565476  0.65589755    -0.11800
C2226       C  0.74183290  0.51888828  0.67722377     0.02100
H2227       H  0.74293087  0.93857701  0.68577053     0.15100
H2228       H  0.73800951  0.53463089  0.64658989     0.15100
C2229       C  0.73895925  0.54799542  0.68585669     0.36700
C2230       C  0.73859432  0.92565301  0.64616689     0.36600
N2231       N  0.73655720  0.57131470  0.69267857    -0.43600
N2232       N  0.73383539  0.89932265  0.63885113    -0.43600
C2233       C  0.84993756  0.26838777  0.58246083     0.00000
C2234       C  0.84900305  0.23563586  0.58068987    -0.11900
C2235       C  0.88012640  0.23365273  0.58121046     0.02200
C2236       C  0.91335267  0.26501607  0.58390304    -0.00100
C2237       C  0.91421908  0.29771081  0.58554220    -0.11800
C2238       C  0.88327224  0.29978538  0.58466998     0.02100
H2239       H  0.82378768  0.21128532  0.57873264     0.15100
H2240       H  0.93938784  0.32215271  0.58738803     0.15100
C2241       C  0.88709415  0.33476505  0.58587274     0.36700
C2242       C  0.87683571  0.19910542  0.57850639     0.36600
N2243       N  0.89038199  0.36288566  0.58672838    -0.43600
N2244       N  0.87398328  0.17135522  0.57621297    -0.43600
C2245       C  0.60239914  0.27347320  0.58426917     0.00000
C2246       C  0.60220168  0.24187522  0.58912724    -0.11900
C2247       C  0.63326842  0.23994973  0.58860947     0.02200
C2248       C  0.66574160  0.27020059  0.58299196    -0.00100
C2249       C  0.66609130  0.30200721  0.57843076    -0.11800
C2250       C  0.63495081  0.30393147  0.57895769     0.02100
H2251       H  0.57756871  0.21840403  0.59353532     0.15100
H2252       H  0.69078907  0.32548235  0.57411449     0.15100
C2253       C  0.63728460  0.33720627  0.57333695     0.36700
C2254       C  0.63086705  0.20676568  0.59451077     0.36600
N2255       N  0.63931062  0.36392146  0.56880130    -0.43600
N2256       N  0.62871471  0.18009651  0.59928502    -0.43600
C2257       C  0.50686963  0.26435499  0.64670117     0.00000
C2258       C  0.01047573  0.23335725  0.65491792    -0.11900
C2259       C  0.00986937  0.22896186  0.67619946     0.02200
C2260       C  0.50468488  0.25581294  0.68974779    -0.00100
C2261       C  0.50723095  0.28654973  0.68103924    -0.11800
C2262       C  0.50855689  0.29115577  0.65976674     0.02100
H2263       H  0.01588363  0.21648348  0.64507774     0.15100
H2264       H  0.50850791  0.30726726  0.69091182     0.15100
C2265       C  0.51067083  0.32322150  0.65190545     0.36700
C2266       C  0.01640238  0.20169143  0.68407208     0.36600
N2267       N  0.51241312  0.34897077  0.64565464    -0.43600
N2268       N  0.02181180  0.17989699  0.69027462    -0.43600
C2269       C  0.83687580  0.98527475  0.57986793     0.00000
C2270       C  0.86838241  0.01738979  0.57602255    -0.11900
C2271       C  0.90128413  0.01905851  0.57572916     0.02200
C2272       C  0.90326612  0.98803816  0.57956973    -0.00100
C2273       C  0.87218101  0.45727052  0.58697456    -0.11800
C2274       C  0.83904277  0.45505213  0.58715833     0.02100
H2275       H  0.86741876  0.04148001  0.57315567     0.15100
H2276       H  0.87318598  0.43287119  0.58803475     0.15100
C2277       C  0.80806947  0.42013696  0.58922234     0.36700
C2278       C  0.93221998  0.05295228  0.57112071     0.36600
N2279       N  0.78344011  0.39206811  0.59094245    -0.43600
N2280       N  0.95689114  0.08015826  0.56736852    -0.43600
C2281       C  0.65265583  0.98676351  0.58348061     0.00000
C2282       C  0.62044333  0.45453407  0.58422341    -0.11900
C2283       C  0.58759591  0.45297209  0.58404438     0.02200
C2284       C  0.58573455  0.98307120  0.58344189    -0.00100
C2285       C  0.61739546  0.01600485  0.58242447    -0.11800
C2286       C  0.65052782  0.01819366  0.58246702     0.02100
H2287       H  0.62101684  0.42986899  0.58354201     0.15100
H2288       H  0.61641716  0.04043453  0.58150024     0.15100
C2289       C  0.68157590  0.05319781  0.58132250     0.36700
C2290       C  0.55616629  0.41815805  0.58334658     0.36600
N2291       N  0.70632037  0.08133895  0.58042263    -0.43600
N2292       N  0.53112312  0.39017522  0.58286591    -0.43600
C2293       C  0.49347643  0.98522801  0.64497980     0.00000
C2294       C  0.99528962  0.01851692  0.65333569    -0.11900
C2295       C  0.99634658  0.02164690  0.67472035     0.02200
C2296       C  0.49479932  0.99150454  0.68827243    -0.00100
C2297       C  0.49525448  0.46268628  0.67944959    -0.11800
C2298       C  0.49271184  0.45961101  0.65803704     0.02100
H2299       H  0.99597066  0.03963165  0.64414438     0.15100
H2300       H  0.49144758  0.44013835  0.68852449     0.15100
C2301       C  0.48538298  0.42626085  0.64896798     0.36700
C2302       C  0.99825663  0.05308381  0.68355307     0.36600
N2303       N  0.47924940  0.39948125  0.64165415    -0.43600
N2304       N  0.99957043  0.07819810  0.69058639    -0.43600
C2305       C  0.73814863  0.24472178  0.85331988     0.00000
C2306       C  0.74110527  0.21822532  0.84260580    -0.11900
C2307       C  0.74227234  0.21802755  0.82116379     0.02200
C2308       C  0.74060236  0.24493686  0.80988941    -0.00100
C2309       C  0.73795202  0.27161002  0.82058480    -0.11800
C2310       C  0.73698049  0.27191400  0.84204466     0.02100
H2311       H  0.74189458  0.19709136  0.85100560     0.15100
H2312       H  0.73720984  0.29273867  0.81214727     0.15100
C2313       C  0.73619352  0.30124990  0.85197640     0.36700
C2314       C  0.74380891  0.18907133  0.81123784     0.36600
N2315       N  0.73574642  0.32489689  0.85987897    -0.43600
N2316       N  0.74497508  0.16581816  0.80331416    -0.43600
C2317       C  0.75091210  0.50181247  0.81261738     0.00000
C2318       C  0.77932080  0.50292339  0.82340232    -0.11900
C2319       C  0.77929333  0.50186081  0.84483388     0.02200
C2320       C  0.75000040  0.49888713  0.85585743    -0.00100
C2321       C  0.73799867  0.01022104  0.84312333    -0.11800
C2322       C  0.73696456  0.01082043  0.82172027     0.02100
H2323       H  0.80194772  0.50527813  0.81506936     0.15100
H2324       H  0.72558779  0.02245425  0.85172319     0.15100
C2325       C  0.71900545  0.02765367  0.81242560     0.36700
C2326       C  0.81045857  0.50578522  0.85508063     0.36600
N2327       N  0.70446380  0.04109243  0.80512713    -0.43600
N2328       N  0.83555081  0.50924495  0.86328601    -0.43600
C2329       C  0.84268772  0.08590260  0.91729695     0.00000
C2330       C  0.87262123  0.08676712  0.92595301    -0.11900
C2331       C  0.90520386  0.11846734  0.92697457     0.02200
C2332       C  0.90843661  0.15012804  0.91886129    -0.00100
C2333       C  0.87845506  0.14930598  0.91033484    -0.11800
C2334       C  0.84580948  0.11770561  0.90948124     0.02100
H2335       H  0.87043522  0.06268382  0.93230327     0.15100
H2336       H  0.88062379  0.17336727  0.90395978     0.15100
C2337       C  0.81645968  0.11870886  0.89985772     0.36700
C2338       C  0.93428758  0.11785881  0.93722519     0.36600
N2339       N  0.79301721  0.11964490  0.89214711    -0.43600
N2340       N  0.95747918  0.11735394  0.94556283    -0.43600
C2341       C  0.59242494  0.33519267  0.91806995     0.00000
C2342       C  0.59074309  0.36632314  0.91495060    -0.11900
C2343       C  0.62146519  0.39976986  0.91452992     0.02200
C2344       C  0.65502996  0.40256970  0.91719891    -0.00100
C2345       C  0.65663569  0.37144386  0.92041841    -0.11800
C2346       C  0.62596240  0.33808883  0.92099575     0.02100
H2347       H  0.56526801  0.36462037  0.91269357     0.15100
H2348       H  0.68205680  0.37306331  0.92274940     0.15100
C2349       C  0.63011013  0.30768237  0.92510575     0.36700
C2350       C  0.61734517  0.43038398  0.91116260     0.36600
N2351       N  0.63361241  0.28345245  0.92845011    -0.43600
N2352       N  0.61383250  0.45478862  0.90850911    -0.43600
C2353       C  0.50082078  0.24232847  0.85637526     0.00000
C2354       C  0.02189924  0.23219816  0.84561626    -0.11900
C2355       C  0.02333074  0.23239455  0.82415515     0.02200
C2356       C  0.50331964  0.24419718  0.81292780    -0.00100
C2357       C  0.47866012  0.24998424  0.82361338    -0.11800
C2358       C  0.47720430  0.24919871  0.84502313     0.02100
H2359       H  0.03883016  0.22518442  0.85419713     0.15100
H2360       H  0.46007860  0.25491105  0.81519907     0.15100
C2361       C  0.45062320  0.25490454  0.85470124     0.36700
C2362       C  0.04786177  0.22359122  0.81458225     0.36600
N2363       N  0.42929977  0.25956176  0.86233876    -0.43600
N2364       N  0.06759914  0.21655835  0.80699811    -0.43600
C2365       C  0.82683467  0.33087696  0.91821786     0.00000
C2366       C  0.85796425  0.32937443  0.91494891    -0.11900
C2367       C  0.89137223  0.36016178  0.91495477     0.02200
C2368       C  0.89431249  0.39372629  0.91837928    -0.00100
C2369       C  0.86324234  0.39516958  0.92201794    -0.11800
C2370       C  0.82982599  0.36438300  0.92199375     0.02100
H2371       H  0.85629833  0.30398688  0.91204387     0.15100
H2372       H  0.86493653  0.42057378  0.92491535     0.15100
C2373       C  0.79939357  0.36838921  0.92602595     0.36700
C2374       C  0.92179603  0.35615949  0.91089610     0.36600
N2375       N  0.77514054  0.37181089  0.92926082    -0.43600
N2376       N  0.94603471  0.35273648  0.90761669    -0.43600
C2377       C  0.57639847  0.08158935  0.91734764     0.00000
C2378       C  0.57629853  0.11134803  0.90903116    -0.11900
C2379       C  0.60766284  0.14418043  0.90745281     0.02200
C2380       C  0.64005427  0.14751609  0.91418746    -0.00100
C2381       C  0.63993903  0.11781696  0.92276268    -0.11800
C2382       C  0.60858365  0.08523984  0.92462700     0.02100
H2383       H  0.55171103  0.10883298  0.90340044     0.15100
H2384       H  0.66439502  0.12021940  0.92854402     0.15100
C2385       C  0.61012303  0.05663437  0.93496630     0.36700
C2386       C  0.60571751  0.17352074  0.89844583     0.36600
N2387       N  0.61137002  0.03385147  0.94339297    -0.43600
N2388       N  0.60394974  0.19693998  0.89126474    -0.43600
C2389       C  0.48821311  0.99303653  0.85520099     0.00000
C2390       C  0.51577645  0.48356058  0.84640391    -0.11900
C2391       C  0.51972542  0.48620245  0.82508948     0.02200
C2392       C  0.49434644  0.99837332  0.81186454    -0.00100
C2393       C  0.96743300  0.99474373  0.82047497    -0.11800
C2394       C  0.96402781  0.99176257  0.84184478     0.02100
H2395       H  0.53428056  0.47932386  0.85539917     0.15100
H2396       H  0.94672422  0.99526825  0.81151864     0.15100
C2397       C  0.93264298  0.98914674  0.85105161     0.36700
C2398       C  0.54878927  0.48358766  0.81631529     0.36600
N2399       N  0.90746830  0.98700241  0.85841656    -0.43600
N2400       N  0.57215473  0.48154450  0.80936412    -0.43600
C2401       C  0.73007008  0.22987205  0.02008887     0.00000
C2402       C  0.70313554  0.23284899  0.01005396    -0.19100
C2403       C  0.70220246  0.23441567  0.98859370     0.02200
C2404       C  0.72855971  0.23275122  0.97674598    -0.00100
C2405       C  0.75457911  0.22832002  0.98683472    -0.11800
C2406       C  0.75556951  0.22689255  0.00821678     0.02100
H2407       H  0.68313319  0.23467217  0.01901097     0.15100
H2408       H  0.77463194  0.22638645  0.97799926     0.15100
C2409       C  0.78248264  0.22127299  0.01748053     0.36700
C2410       C  0.67346342  0.23691394  0.97925588     0.36600
N2411       N  0.80398776  0.21663323  0.02485498    -0.43600
N2412       N  0.65034830  0.23882668  0.97182864    -0.43600
C2413       C  0.73294087  0.38996348  0.08202347     0.00000
C2414       C  0.76336725  0.38957141  0.08874224    -0.11900
C2415       C  0.76490573  0.35821762  0.08862614     0.02200
C2416       C  0.73553869  0.32629228  0.08151919    -0.00100
C2417       C  0.70520786  0.32667734  0.07464496    -0.11800
C2418       C  0.70363673  0.35802829  0.07476026     0.02100
H2419       H  0.78593848  0.41377934  0.09449645     0.15100
H2420       H  0.68263910  0.30237852  0.06896623     0.15100
C2421       C  0.67191571  0.35650477  0.06685320     0.36700
C2422       C  0.79639529  0.35949794  0.09672012     0.36600
N2423       N  0.64644564  0.35510798  0.06048964    -0.43600
N2424       N  0.82161879  0.36059003  0.10325733    -0.43600
C2425       C  0.72963860  0.07346800  0.08274849     0.00000
C2426       C  0.76122571  0.10446270  0.08815452    -0.11900
C2427       C  0.76325018  0.13758107  0.08861627     0.02200
C2428       C  0.73319556  0.14025662  0.08330418    -0.00100
C2429       C  0.70141001  0.10919034  0.07833839    -0.11800
C2430       C  0.69927866  0.07603210  0.07804297     0.02100
H2431       H  0.78454667  0.10288076  0.09222219     0.15100
H2432       H  0.67806361  0.11077769  0.07434346     0.15100
C2433       C  0.66568436  0.04552281  0.07243109     0.36700
C2434       C  0.79626887  0.16793464  0.09515545     0.36600
N2435       N  0.63865627  0.02121449  0.06797332    -0.43600
N2436       N  0.82274720  0.19211358  0.10047781    -0.43600
C2437       C  0.74375302  0.49239270  0.97913325     0.00000
C2438       C  0.71416616  0.98802724  0.98585001    -0.11900
C2439       C  0.70931363  0.98552383  0.00713131     0.02200
C2440       C  0.73461112  0.98380583  0.01984447    -0.00100
C2441       C  0.76472464  0.48566333  0.01250623    -0.11800
C2442       C  0.76847524  0.48831509  0.99117717     0.02100
H2443       H  0.69467926  0.98956801  0.97623945     0.15100
H2444       H  0.78394169  0.48267420  0.02156352     0.15100
C2445       C  0.79860205  0.48783644  0.98226989     0.36700
C2446       C  0.67882966  0.98599380  0.01545511     0.36600
N2447       N  0.82280329  0.48747432  0.97521720    -0.43600
N2448       N  0.65435791  0.98634137  0.02208157    -0.43600
C2449       C  0.00696480  0.24997215  0.02291859     0.00000
C2450       C  0.97861680  0.24978217  0.01260314    -0.11900
C2451       C  0.97631220  0.24791177  0.99121746     0.02200
C2452       C  0.00263705  0.24573791  0.97964548    -0.00100
C2453       C  0.53304923  0.24481946  0.99012661    -0.11800
C2454       C  0.53582719  0.24762360  0.01155335     0.02100
H2455       H  0.95819559  0.25132369  0.02129095     0.15100
H2456       H  0.55441805  0.24531761  0.98132608     0.15100
C2457       C  0.56692141  0.25007685  0.02106561     0.36700
C2458       C  0.94605732  0.24730104  0.98171805     0.36600
N2459       N  0.59189516  0.25207468  0.02862309    -0.43600
N2460       N  0.92181278  0.24684848  0.97414383    -0.43600
C2461       C  0.50619021  0.40840034  0.08665847     0.00000
C2462       C  0.53680906  0.40833284  0.09339581    -0.11900
C2463       C  0.53918472  0.37740564  0.09258366     0.02200
C2464       C  0.51046665  0.34564915  0.08474884    -0.00100
C2465       C  0.97519292  0.34361248  0.08407422    -0.11800
C2466       C  0.97236790  0.37420250  0.08452910     0.02100
H2467       H  0.55900810  0.43254221  0.09944738     0.15100
H2468       H  0.95107145  0.31800911  0.08285534     0.15100
C2469       C  0.93728173  0.36966624  0.08265265     0.36700
C2470       C  0.57091373  0.37897916  0.10051584     0.36600
N2471       N  0.90909502  0.36577085  0.08100759    -0.43600
N2472       N  0.59634873  0.38034568  0.10691673    -0.43600
C2473       C  0.50790494  0.09435907  0.08387165     0.00000
C2474       C  0.97666310  0.09486621  0.08566723    -0.11900
C2475       C  0.97533852  0.12629228  0.08692646     0.02200
C2476       C  0.50710808  0.15901500  0.08626056    -0.00100
C2477       C  0.53735789  0.15854808  0.07933439    -0.11800
C2478       C  0.53803838  0.12681941  0.07799510     0.02100
H2479       H  0.95250231  0.06974031  0.08821350     0.15100
H2480       H  0.56052470  0.18308478  0.07450929     0.15100
C2481       C  0.56987924  0.12869781  0.07001725     0.36700
C2482       C  0.94152524  0.12331529  0.09161802     0.36600
N2483       N  0.59544298  0.13036258  0.06360211    -0.43600
N2484       N  0.91437320  0.12078529  0.09534605    -0.43600
C2485       C  0.49581547  0.48953793  0.97999486     0.00000
C2486       C  0.51936638  0.99038648  0.98798261    -0.11900
C2487       C  0.52417260  0.99369600  0.00927121     0.02200
C2488       C  0.50267703  0.49403345  0.02330462    -0.00100
C2489       C  0.96568046  0.48576392  0.01282383    -0.11800
C2490       C  0.96256411  0.48354312  0.99144735     0.02100
H2491       H  0.54006517  0.99101795  0.97844386     0.15100
H2492       H  0.94391060  0.48393228  0.02183376     0.15100
C2493       C  0.92971761  0.47741566  0.98237184     0.36700
C2494       C  0.55616023  0.99639071  0.01756987     0.36600
N2495       N  0.90338105  0.47238574  0.97507687    -0.43600
N2496       N  0.58179132  0.99852575  0.02420741    -0.43600
C2497       C  0.76535388  0.27744435  0.52027662     0.00000
C2498       C  0.76475522  0.30575095  0.51023315    -0.11900
C2499       C  0.76680327  0.30863145  0.48877901     0.02200
C2500       C  0.76994336  0.28302795  0.47700647    -0.00100
C2501       C  0.77173353  0.25545485  0.48716912    -0.11800
C2502       C  0.76964452  0.25253807  0.50852285     0.02100
H2503       H  0.76156174  0.32507880  0.51912991     0.15100
H2504       H  0.77469504  0.23590223  0.47834813     0.15100
C2505       C  0.77322917  0.22441454  0.51796002     0.36700
C2506       C  0.76327419  0.33670176  0.47932669     0.36600
N2507       N  0.77629510  0.20201541  0.52553028    -0.43600
N2508       N  0.76011931  0.35917814  0.47196452    -0.43600
C2509       C  0.74728356  0.99232980  0.47671216     0.00000
C2510       C  0.73010638  0.45828551  0.48945367    -0.11900
C2511       C  0.72788375  0.45565889  0.51084777     0.02200
C2512       C  0.74390863  0.98736929  0.52008796    -0.00100
C2513       C  0.76493830  0.02025428  0.51028985    -0.11800
C2514       C  0.76700304  0.02300966  0.48892886     0.02100
H2515       H  0.71666115  0.43406604  0.48044621     0.15100
H2516       H  0.78037348  0.04412125  0.51934977     0.15100
C2517       C  0.79035330  0.05761262  0.48021625     0.36700
C2518       C  0.70738934  0.42056718  0.51961904     0.36600
N2519       N  0.80922284  0.08539859  0.47335983    -0.43600
N2520       N  0.69085607  0.39232734  0.52647659    -0.43600
C2521       C  0.51211260  0.27708849  0.52337831     0.00000
C2522       C  0.01599348  0.30524577  0.51353417    -0.11900
C2523       C  0.01751264  0.30849109  0.49211832     0.02200
C2524       C  0.51435031  0.28176039  0.47998471    -0.00100
C2525       C  0.50941837  0.25095732  0.48992940    -0.11800
C2526       C  0.50842864  0.24838463  0.51126354     0.02100
H2527       H  0.01811936  0.32699252  0.52279099     0.15100
H2528       H  0.50675890  0.22868030  0.48097795     0.15100
C2529       C  0.50472469  0.21620827  0.52010733     0.36700
C2530       C  0.02060206  0.34038618  0.48327243     0.36600
N2531       N  0.50181433  0.19039577  0.52709237    -0.43600
N2532       N  0.02285952  0.36589952  0.47624847    -0.43600
C2533       C  0.92461377  0.28188228  0.41708945     0.00000
C2534       C  0.89306842  0.24923403  0.41970448    -0.11900
C2535       C  0.85990079  0.24695361  0.41932126     0.02200
C2536       C  0.85752400  0.27776895  0.41556717    -0.00100
C2537       C  0.88911693  0.31054823  0.41326326    -0.11800
C2538       C  0.92237075  0.31301329  0.41428516     0.02100
H2539       H  0.89419538  0.22516967  0.42240367     0.15100
H2540       H  0.88799307  0.33467861  0.41083906     0.15100
C2541       C  0.95341197  0.34798621  0.41271358     0.36700
C2542       C  0.82916112  0.21278684  0.42365537     0.36600
N2543       N  0.97815722  0.37611084  0.41164382    -0.43600
N2544       N  0.80470780  0.18539894  0.42736219    -0.43600
C2545       C  0.67357676  0.27996639  0.41822850     0.00000
C2546       C  0.64209158  0.24837175  0.42297036    -0.11900
C2547       C  0.60955365  0.24743208  0.42415774     0.02200
C2548       C  0.60790802  0.27864950  0.42037141    -0.00100
C2549       C  0.63948925  0.31043939  0.41625410    -0.11800
C2550       C  0.67201338  0.31146192  0.41512717     0.02100
H2551       H  0.64276633  0.22412794  0.42580122     0.15100
H2552       H  0.63879676  0.33468556  0.41343015     0.15100
C2553       C  0.70278049  0.34527857  0.41020831     0.36700
C2554       C  0.57862528  0.21409792  0.42963849     0.36600
N2555       N  0.72696521  0.37262548  0.40612761    -0.43600
N2556       N  0.55393919  0.18735179  0.43408954    -0.43600
C2557       C  0.49486216  0.98822141  0.47779838     0.00000
C2558       C  0.49766227  0.01667640  0.48946722    -0.11900
C2559       C  0.49625381  0.01536670  0.51083362     0.02200
C2560       C  0.49213379  0.98496870  0.52127403    -0.00100
C2561       C  0.97046836  0.46030836  0.51124727    -0.11800
C2562       C  0.97002221  0.46000805  0.48974390     0.02100
H2563       H  0.50082667  0.04028039  0.48184380     0.15100
H2564       H  0.95078517  0.43708560  0.51948614     0.15100
C2565       C  0.94221374  0.42914480  0.47946184     0.36700
C2566       C  0.49836165  0.04557513  0.52147678     0.36600
N2567       N  0.91972357  0.40448793  0.47127658    -0.43600
N2568       N  0.50008447  0.06983882  0.52992940    -0.43600
C2569       C  0.90675861  0.99619883  0.41601199     0.00000
C2570       C  0.87797181  0.46361002  0.42104432    -0.11900
C2571       C  0.84494273  0.46159210  0.42167501     0.02200
C2572       C  0.83989711  0.99239344  0.41573567    -0.00100
C2573       C  0.87050232  0.02336012  0.42236402    -0.11800
C2574       C  0.90356203  0.02540286  0.42280534     0.02100
H2575       H  0.87966662  0.44030339  0.42514671     0.15100
H2576       H  0.86860788  0.04611322  0.42750943     0.15100
C2577       C  0.93324151  0.05739018  0.43100808     0.36700
C2578       C  0.81485918  0.42831481  0.42800998     0.36600
N2579       N  0.95685867  0.08297316  0.43773690    -0.43600
N2580       N  0.79110423  0.40142813  0.43315308    -0.43600
C2581       C  0.59433289  0.00115719  0.41534858     0.00000
C2582       C  0.59339672  0.46379051  0.41818551    -0.11900
C2583       C  0.62433364  0.46165747  0.41828018     0.02200
C2584       C  0.65685319  0.99624166  0.41470679    -0.00100
C2585       C  0.65874300  0.02954990  0.41450556    -0.11800
C2586       C  0.62808049  0.03231789  0.41469868     0.02100
H2587       H  0.56800073  0.43930298  0.41867544     0.15100
H2588       H  0.68437528  0.05376551  0.41413589     0.15100
C2589       C  0.63238069  0.06750434  0.41378001     0.36700
C2590       C  0.62032635  0.42656986  0.41882722     0.36600
N2591       N  0.63599004  0.09575512  0.41296997    -0.43600
N2592       N  0.61688600  0.39836727  0.41923265    -0.43600
C2593       C  0.73851321  0.23498619  0.18727990     0.00000
C2594       C  0.76970340  0.25746932  0.17635151    -0.11900
C2595       C  0.77029773  0.25816985  0.15488404     0.02200
C2596       C  0.73901917  0.23585165  0.14369017    -0.00100
C2597       C  0.70802013  0.21285257  0.15461748    -0.11800
C2598       C  0.70750155  0.21206862  0.17609819     0.02100
H2599       H  0.79381034  0.27526995  0.18461530     0.15100
H2600       H  0.68392760  0.19505139  0.14634752     0.15100
C2601       C  0.67491739  0.18680237  0.18608527     0.36700
C2602       C  0.80328858  0.28280240  0.14498337     0.36600
N2603       N  0.64874334  0.16639923  0.19398111    -0.43600
N2604       N  0.82981867  0.30259053  0.13717061    -0.43600
C2605       C  0.74870106  0.25957073  0.31023329     0.00000
C2606       C  0.72579707  0.23164052  0.32305422    -0.11900
C2607       C  0.72858720  0.23510691  0.34442360     0.02200
C2608       C  0.75466393  0.26750275  0.35355349    -0.00100
C2609       C  0.77667506  0.29599538  0.34059818    -0.11800
C2610       C  0.77398017  0.29227768  0.31916015     0.02100
H2611       H  0.70610777  0.20658264  0.31633145     0.15100
H2612       H  0.79635814  0.32115486  0.34719320     0.15100
C2613       C  0.79663344  0.32283079  0.30669207     0.36700
C2614       C  0.70392914  0.20471921  0.35638464     0.36600
N2615       N  0.81467381  0.34741742  0.29674947    -0.43600
N2616       N  0.68413639  0.18021877  0.36585158    -0.43600
C2617       C  0.74329757  0.33692458  0.24470134     0.00000
C2618       C  0.77365614  0.36739528  0.25188847    -0.11900
C2619       C  0.77433126  0.39970774  0.25393727     0.02200
C2620       C  0.74433890  0.40219758  0.24823878    -0.00100
C2621       C  0.71422163  0.37190146  0.24057365    -0.11800
C2622       C  0.71338560  0.33941672  0.23878140     0.02100
H2623       H  0.79656745  0.36569699  0.25673180     0.15100
H2624       H  0.69123148  0.37358185  0.23586521     0.15100
C2625       C  0.68165966  0.30943218  0.23055986     0.36700
C2626       C  0.80550670  0.42912890  0.26299773     0.36600
N2627       N  0.65616115  0.28553122  0.22397814    -0.43600
N2628       N  0.83044480  0.45255870  0.27037966    -0.43600
C2629       C  0.74002526  0.15062481  0.25349936     0.00000
C2630       C  0.77212401  0.15053243  0.25513553    -0.11900
C2631       C  0.77300878  0.11877692  0.25454898     0.02200
C2632       C  0.74117513  0.08591081  0.25185167    -0.00100
C2633       C  0.70896560  0.08589139  0.25094716    -0.11800
C2634       C  0.70798895  0.11755894  0.25189776     0.02100
H2635       H  0.79685775  0.17546914  0.25681566     0.15100
H2636       H  0.68422215  0.06095325  0.24928803     0.15100
C2637       C  0.67354840  0.11480757  0.25095615     0.36700
C2638       C  0.80703022  0.12106781  0.25714049     0.36600
N2639       N  0.64585109  0.11234979  0.25028300    -0.43600
N2640       N  0.83430147  0.12298568  0.25933657    -0.43600
C2641       C  0.72824690  0.98115034  0.14324503     0.00000
C2642       C  0.76545978  0.49537565  0.15571901    -0.11900
C2643       C  0.76865878  0.49888025  0.17701406     0.02200
C2644       C  0.73376168  0.98809973  0.18659053    -0.00100
C2645       C  0.70160822  0.97864286  0.17656824    -0.11800
C2646       C  0.69863998  0.97533015  0.15513687     0.02100
H2647       H  0.78904006  0.50235340  0.14676486     0.15100
H2648       H  0.67873817  0.97426561  0.18546953     0.15100
C2649       C  0.66529361  0.96716652  0.14586910     0.36700
C2650       C  0.80329201  0.51068091  0.18573706     0.36600
N2651       N  0.63857791  0.96074438  0.13847498    -0.43600
N2652       N  0.83106648  0.52001137  0.19263964    -0.43600
C2653       C  0.74612887  0.99351783  0.35342043     0.00000
C2654       C  0.77656849  0.01701342  0.34240270    -0.11900
C2655       C  0.77657191  0.01700425  0.32093823     0.02200
C2656       C  0.74519248  0.99359643  0.31007383    -0.00100
C2657       C  0.72109544  0.46457339  0.32321120    -0.11800
C2658       C  0.72104030  0.46324127  0.34464027     0.02100
H2659       H  0.80065053  0.03502600  0.35060669     0.15100
H2660       H  0.70062870  0.44222114  0.31472069     0.15100
C2661       C  0.69247975  0.43240303  0.35450214     0.36700
C2662       C  0.80917507  0.04155112  0.31067751     0.36600
N2663       N  0.66949475  0.40773487  0.36236007    -0.43600
N2664       N  0.83541784  0.06112977  0.30252870    -0.43600
C2665       C  0.51336986  0.26904374  0.18957169     0.00000
C2666       C  0.98063819  0.24074785  0.17990519    -0.11900
C2667       C  0.97844477  0.23643240  0.15858195     0.02200
C2668       C  0.51008959  0.25947467  0.14648739    -0.00100
C2669       C  0.54103048  0.28622307  0.15589767    -0.11800
C2670       C  0.54296337  0.29124237  0.17714606     0.02100
H2671       H  0.95669706  0.22614765  0.18894867     0.15100
H2672       H  0.56385217  0.30363951  0.14659021     0.15100
C2673       C  0.57555454  0.31978303  0.18554206     0.36700
C2674       C  0.94430530  0.21169250  0.14987944     0.36600
N2675       N  0.60174265  0.34266540  0.19217366    -0.43600
N2676       N  0.91695038  0.19168928  0.14297981    -0.43600
C2677       C  0.51895980  0.27667156  0.31304717     0.00000
C2678       C  0.99055797  0.24924806  0.32395850    -0.11900
C2679       C  0.99022343  0.24941466  0.34537317     0.02200
C2680       C  0.51759187  0.27701232  0.35647666    -0.00100
C2681       C  0.54572064  0.30476625  0.34567663    -0.11800
C2682       C  0.54680094  0.30473382  0.32420165     0.02100
H2683       H  0.97081254  0.22588819  0.31581674     0.15100
H2684       H  0.56709219  0.32653226  0.35403821     0.15100
C2685       C  0.57629943  0.33442201  0.31413758     0.36700
C2686       C  0.96240515  0.21840923  0.35552082     0.36600
N2687       N  0.59998119  0.35822354  0.30611488    -0.43600
N2688       N  0.94008639  0.19352190  0.36359288    -0.43600
C2689       C  0.01170206  0.42753965  0.24840903     0.00000
C2690       C  0.97933152  0.39534016  0.24936841    -0.11900
C2691       C  0.97817998  0.36255202  0.24930756     0.02200
C2692       C  0.50989860  0.36276282  0.25010902    -0.00100
C2693       C  0.53945020  0.39374480  0.24271609    -0.11800
C2694       C  0.53963937  0.42589951  0.24183140     0.02100
H2695       H  0.95461532  0.39566916  0.25042247     0.15100
H2696       H  0.56267228  0.39289531  0.23744617     0.15100
C2697       C  0.57084868  0.45639991  0.23360039     0.36700
C2698       C  0.94376847  0.33077663  0.25050717     0.36600
N2699       N  0.59590043  0.48079184  0.22703285    -0.43600
N2700       N  0.91606827  0.30546655  0.25145598    -0.43600
C2701       C  0.52089848  0.18348227  0.25066217     0.00000
C2702       C  0.99077289  0.15055801  0.26222131    -0.11900
C2703       C  0.98963033  0.11781564  0.26168282     0.02200
C2704       C  0.01696004  0.11498260  0.25178185    -0.00100
C2705       C  0.55040638  0.14889631  0.25486864    -0.11800
C2706       C  0.55153281  0.18166278  0.25563208     0.02100
H2707       H  0.96959443  0.15240650  0.26981607     0.15100
H2708       H  0.57393870  0.14780228  0.25904971     0.15100
C2709       C  0.58415614  0.21251823  0.26214633     0.36700
C2710       C  0.96075679  0.08798945  0.27204601     0.36600
N2711       N  0.61033852  0.23716145  0.26738696    -0.43600
N2712       N  0.93769699  0.06415586  0.28043213    -0.43600
C2713       C  0.50768591  0.50949848  0.14664431     0.00000
C2714       C  0.54869910  0.03002848  0.15469352    -0.11900
C2715       C  0.55203079  0.03543368  0.17603048     0.02200
C2716       C  0.50991629  0.51988359  0.18966022    -0.00100
C2717       C  0.97770797  0.50073726  0.17972709    -0.11800
C2718       C  0.97455234  0.49544998  0.15850868     0.02100
H2719       H  0.57237717  0.04271852  0.14527216     0.15100
H2720       H  0.95367053  0.48921338  0.18886087     0.15100
C2721       C  0.93914409  0.47500221  0.15021137     0.36700
C2722       C  0.58709892  0.05728406  0.18446827     0.36600
N2723       N  0.91065046  0.45855176  0.14375421    -0.43600
N2724       N  0.61527766  0.07472334  0.19116884    -0.43600
C2725       C  0.50946836  0.01631627  0.35528300     0.00000
C2726       C  0.97853946  0.48117742  0.34434406    -0.11900
C2727       C  0.97842940  0.48422524  0.32301935     0.02200
C2728       C  0.51294232  0.02125022  0.31195906    -0.00100
C2729       C  0.54049575  0.04710011  0.32408077    -0.11800
C2730       C  0.53888956  0.04505817  0.34556511     0.02100
H2731       H  0.95496021  0.46093720  0.35204185     0.15100
H2732       H  0.56336679  0.06896278  0.31677090     0.15100
C2733       C  0.56843524  0.07202528  0.35713199     0.36700
C2734       C  0.94678524  0.45885689  0.31221477     0.36600
N2735       N  0.59215559  0.09367846  0.36635348    -0.43600
N2736       N  0.92135862  0.43842293  0.30366923    -0.43600
O2737       O  0.54845218  0.99622835  0.25189725    -0.71700
O2738       O  0.53994781  0.57814902  0.25276977    -0.71900
O2739       O  0.53870240  0.53206406  0.28051925    -0.71700
O2740       O  0.53919844  0.53609140  0.22233408    -0.71700
O2741       O  0.98968727  0.01115037  0.21876693    -0.71700
O2742       O  0.98517470  0.00404457  0.27643010    -0.71700
O2743       O  0.98318496  0.54970079  0.25310842    -0.71700
O2744       O  0.98773503  0.96442473  0.24580945    -0.71800
V2745       V  0.53792630  0.53379249  0.25143403     1.35200
V2746       V  0.98873446  0.00847678  0.24762934     1.35200
C2747       C  0.01650044  0.96392654  0.24652520     0.77600
C2748       C  0.01223899  0.57888942  0.25323274     0.77600
C2749       C  0.50969422  0.51590787  0.29019334     0.77500
C2750       C  0.51043257  0.52218888  0.21235837     0.77500
O2751       O  0.54664880  0.83177491  0.24832979    -0.71700
O2752       O  0.54733312  0.74512001  0.25261742    -0.71900
O2753       O  0.54662528  0.78470794  0.22147379    -0.71700
O2754       O  0.54752198  0.79200111  0.27946628    -0.71700
O2755       O  0.98891013  0.76090781  0.28027324    -0.71700
O2756       O  0.98755861  0.75421725  0.22249167    -0.71700
O2757       O  0.98916941  0.71472745  0.25328431    -0.71700
O2758       O  0.98719910  0.80050745  0.24940520    -0.71800
V2759       V  0.54594128  0.78790800  0.25046353     1.35200
V2760       V  0.98936798  0.75823034  0.25136749     1.35200
C2761       C  0.51775682  0.83206599  0.24824039     0.77600
C2762       C  0.51862132  0.71570572  0.25304481     0.77600
C2763       C  0.51778011  0.76876379  0.21164447     0.77500
C2764       C  0.51885702  0.77759835  0.28949876     0.77500
O2765       O  0.76735497  0.96260355  0.24659518    -0.71700
O2766       O  0.77158254  0.55195377  0.25076840    -0.71900
O2767       O  0.77396792  0.50926434  0.27938401    -0.71700
O2768       O  0.76961265  0.50780576  0.22130513    -0.71700
O2769       O  0.70773445  0.97781286  0.22014278    -0.71700
O2770       O  0.71340107  0.97827279  0.27831622    -0.71700
O2771       O  0.71420760  0.52280184  0.25275306    -0.71700
O2772       O  0.70989448  0.93416903  0.24831740    -0.71800
V2773       V  0.77074494  0.50804750  0.25035295     1.35200
V2774       V  0.71165312  0.97869383  0.24923343     1.35200
C2775       C  0.73847014  0.93341840  0.24691197     0.77600
C2776       C  0.74288877  0.55233030  0.25213846     0.77600
C2777       C  0.74588984  0.49416794  0.28994303     0.77500
C2778       C  0.74023111  0.49280786  0.21195786     0.77500
O2779       O  0.70869320  0.77011817  0.24750661    -0.71700
O2780       O  0.71032627  0.68425249  0.25092719    -0.71900
O2781       O  0.71304945  0.73205424  0.27830644    -0.71700
O2782       O  0.70676413  0.72321086  0.21998323    -0.71700
O2783       O  0.76417931  0.75204932  0.21818939    -0.71700
O2784       O  0.77038283  0.76184042  0.27590855    -0.71700
O2785       O  0.76770799  0.71334635  0.24915947    -0.71700
O2786       O  0.76606639  0.79975498  0.24508695    -0.71800
V2787       V  0.71080267  0.72787253  0.24912476     1.35200
V2788       V  0.76596609  0.75610367  0.24711463     1.35200
C2789       C  0.73698654  0.79963401  0.24607339     0.77600
C2790       C  0.73908117  0.68387349  0.25057798     0.77600
C2791       C  0.74300533  0.74958248  0.28699230     0.77500
C2792       C  0.73459731  0.73657821  0.20909941     0.77500
O2793       O  0.53136991  0.97336681  0.41356290    -0.71700
O2794       O  0.94210996  0.96859501  0.41333775    -0.71900
O2795       O  0.98803423  0.97422073  0.38398569    -0.71700
O2796       O  0.98360435  0.96402932  0.44209819    -0.71700
O2797       O  0.51203108  0.52001550  0.44743861    -0.71700
O2798       O  0.51991512  0.52939723  0.38972397    -0.71700
O2799       O  0.97227423  0.52486031  0.41709250    -0.71700
O2800       O  0.55956694  0.52513967  0.41955418    -0.71800
V2801       V  0.98627607  0.97009271  0.41308412     1.35200
V2802       V  0.51536057  0.52359813  0.41852987     1.35200
C2803       C  0.56056468  0.49673459  0.41751881     0.77600
C2804       C  0.94312937  0.49593625  0.41598630     0.77600
C2805       C  0.50625480  0.50222665  0.37832385     0.77500
C2806       C  0.49768684  0.48982637  0.45596714     0.77500
O2807       O  0.54269822  0.74592461  0.41813906    -0.71700
O2808       O  0.95759561  0.75068187  0.41736205    -0.71900
O2809       O  0.00050111  0.74965243  0.38853565    -0.71700
O2810       O  0.00009618  0.74910746  0.44655799    -0.71700
O2811       O  0.52849225  0.80473317  0.44613462    -0.71700
O2812       O  0.53003543  0.80396543  0.38803586    -0.71700
O2813       O  0.98748219  0.80831218  0.41697716    -0.71700
O2814       O  0.57237901  0.80359374  0.41779356    -0.71800
V2815       V  0.00086545  0.75044933  0.41752552     1.35200
V2816       V  0.52851480  0.80314736  0.41709097     1.35200
C2817       C  0.57226516  0.77439330  0.41813516     0.77600
C2818       C  0.95774840  0.77982709  0.41675649     0.77600
C2819       C  0.51564435  0.77499415  0.37818337     0.77500
C2820       C  0.51375330  0.77600948  0.45615582     0.77500
O2821       O  0.76449062  0.52097553  0.44681316    -0.71700
O2822       O  0.76434230  0.52110216  0.38858277    -0.71900
O2823       O  0.72120551  0.52150001  0.41776241    -0.71700
O2824       O  0.80779271  0.52068206  0.41757372    -0.71700
O2825       O  0.77633162  0.96396464  0.41447660    -0.71700
O2826       O  0.69034925  0.96603305  0.41528525    -0.71700
O2827       O  0.73238406  0.96496102  0.38589601    -0.71700
O2828       O  0.73375083  0.96460400  0.44382968    -0.71800
V2829       V  0.76395183  0.51997928  0.41769521     1.35200
V2830       V  0.73382135  0.96601535  0.41486487     1.35200
C2831       C  0.75000446  0.49210162  0.45674083     0.77600
C2832       C  0.74892134  0.49219344  0.37865323     0.77600
C2833       C  0.69177570  0.49275351  0.41789711     0.77500
C2834       C  0.80808167  0.49171471  0.41729017     0.77500
O2835       O  0.79290663  0.74606332  0.41290027    -0.71700
O2836       O  0.70591654  0.74595781  0.41757529    -0.71900
O2837       O  0.74347985  0.74190562  0.38638891    -0.71700
O2838       O  0.75453162  0.74932423  0.44384956    -0.71700
O2839       O  0.78204045  0.80688120  0.44206470    -0.71700
O2840       O  0.77317347  0.79946185  0.38372970    -0.71700
O2841       O  0.73442278  0.80345437  0.41468516    -0.71700
O2842       O  0.82129055  0.80365071  0.41132795    -0.71800
V2843       V  0.74983390  0.74696545  0.41510331     1.35200
V2844       V  0.77721612  0.80229034  0.41293364     1.35200
C2845       C  0.82212924  0.77500145  0.41187321     0.77600
C2846       C  0.70539241  0.77481075  0.41700298     0.77600
C2847       C  0.75605062  0.76921360  0.37520363     0.77500
C2848       C  0.76959723  0.77901520  0.45291728     0.77500
O2849       O  0.53636825  0.97249079  0.08320554    -0.71700
O2850       O  0.53552520  0.55866389  0.08248146    -0.71900
O2851       O  0.53589470  0.51917452  0.11379790    -0.71700
O2852       O  0.53386650  0.51094308  0.05556615    -0.71700
O2853       O  0.97541083  0.98548281  0.05403144    -0.71700
O2854       O  0.98243893  0.99089557  0.11190674    -0.71700
O2855       O  0.97190766  0.52802415  0.08358178    -0.71700
O2856       O  0.97875084  0.94443885  0.08361718    -0.71800
V2857       V  0.53392897  0.51452827  0.08471391     1.35200
V2858       V  0.98012072  0.98871911  0.08295655     1.35200
C2859       C  0.50771734  0.94311289  0.08395514     0.77600
C2860       C  0.50707822  0.55967122  0.08278524     0.77600
C2861       C  0.51274634  0.00551562  0.12260868     0.77500
C2862       C  0.50150097  0.99698676  0.04466765     0.77500
O2863       O  0.97483861  0.69319616  0.08527451    -0.71700
O2864       O  0.97965028  0.78247732  0.08504370    -0.71900
O2865       O  0.97635408  0.73701336  0.05608592    -0.71700
O2866       O  0.97846068  0.73878465  0.11417742    -0.71700
O2867       O  0.53999772  0.76756538  0.11265815    -0.71700
O2868       O  0.53866782  0.76596220  0.05449778    -0.71700
O2869       O  0.54048706  0.81114329  0.08343200    -0.71700
O2870       O  0.53789673  0.72246528  0.08375273    -0.71800
V2871       V  0.97844998  0.73840348  0.08513618     1.35200
V2872       V  0.53818436  0.76628264  0.08359040     1.35200
C2873       C  0.50858365  0.69357194  0.08383492     0.77600
C2874       C  0.51202333  0.81224171  0.08386304     0.77600
C2875       C  0.00472590  0.74898094  0.04586187     0.77500
C2876       C  0.00755213  0.75303472  0.12379653     0.77500
O2877       O  0.70271972  0.96809588  0.05172931    -0.71700
O2878       O  0.69958507  0.96537725  0.11011487    -0.71900
O2879       O  0.70425726  0.51149381  0.08455752    -0.71700
O2880       O  0.70104230  0.92298666  0.08028811    -0.71700
O2881       O  0.75850766  0.95192054  0.08123983    -0.71700
O2882       O  0.76173522  0.54043986  0.08457450    -0.71700
O2883       O  0.76090731  0.49622162  0.11321501    -0.71700
O2884       O  0.76299689  0.49777278  0.05531900    -0.71800
V2885       V  0.70212814  0.96710626  0.08091990     1.35200
V2886       V  0.76068880  0.49631779  0.08426659     1.35200
C2887       C  0.73474178  0.48475292  0.04496694     0.77600
C2888       C  0.73203122  0.48156512  0.12302699     0.77600
C2889       C  0.73291060  0.54085674  0.08481404     0.77500
C2890       C  0.72979919  0.92253327  0.08020856     0.77500
O2891       O  0.70549314  0.71724864  0.05177710    -0.71700
O2892       O  0.70639080  0.72019768  0.11002358    -0.71900
O2893       O  0.70567679  0.76218214  0.07998929    -0.71700
O2894       O  0.70645118  0.67538161  0.08179476    -0.71700
O2895       O  0.76392420  0.70474601  0.08209553    -0.71700
O2896       O  0.76314017  0.79113877  0.07909525    -0.71700
O2897       O  0.76387318  0.75017506  0.10968526    -0.71700
O2898       O  0.76306011  0.74531830  0.05152640    -0.71800
V2899       V  0.70708473  0.71929564  0.08088467     1.35200
V2900       V  0.76236921  0.74731945  0.08060166     1.35200
C2901       C  0.73413668  0.73063552  0.04171364     0.77600
C2902       C  0.73531705  0.73535962  0.11985430     0.77600
C2903       C  0.73439498  0.79159036  0.07917078     0.77500
C2904       C  0.73541307  0.67525652  0.08241003     0.77500
O2905       O  0.51840444  0.54439616  0.91756053    -0.71700
O2906       O  0.93054765  0.95750280  0.91532382    -0.71900
O2907       O  0.97386118  0.49957619  0.94722022    -0.71700
O2908       O  0.97305004  0.50186705  0.88908964    -0.71700
O2909       O  0.50098394  0.97551566  0.88738726    -0.71700
O2910       O  0.50137516  0.97286417  0.94561404    -0.71700
O2911       O  0.95925840  0.92859326  0.91541052    -0.71700
O2912       O  0.54787607  0.51633345  0.91636414    -0.71800
V2913       V  0.97390782  0.50004733  0.91814336     1.35200
V2914       V  0.50035365  0.97445755  0.91652711     1.35200
C2915       C  0.54781527  0.54539730  0.91625970     0.77600
C2916       C  0.93003035  0.92814747  0.91541649     0.77600
C2917       C  0.48636218  0.98610867  0.95608017     0.77500
C2918       C  0.48626581  0.99010569  0.87792255     0.77500
O2919       O  0.98514487  0.75697844  0.94730263    -0.71700
O2920       O  0.98590842  0.75848076  0.88934552    -0.71900
O2921       O  0.94149812  0.71488817  0.91772173    -0.71700
O2922       O  0.53172283  0.80134150  0.91595286    -0.71700
O2923       O  0.55954529  0.77154149  0.91653080    -0.71700
O2924       O  0.96885890  0.68468891  0.91801137    -0.71700
O2925       O  0.51468302  0.72718195  0.88799623    -0.71700
O2926       O  0.51661186  0.73011049  0.94630725    -0.71800
V2927       V  0.98618457  0.75718960  0.91830638     1.35200
V2928       V  0.51508985  0.72910762  0.91716253     1.35200
C2929       C  0.99922364  0.74227901  0.95720032     0.77600
C2930       C  0.99846208  0.74263305  0.87912300     0.77600
C2931       C  0.94011479  0.68512463  0.91729595     0.77500
C2932       C  0.56063006  0.80111986  0.91611712     0.77500
O2933       O  0.72226863  0.93460273  0.91497313    -0.71700
O2934       O  0.80486500  0.52524284  0.91749337    -0.71900
O2935       O  0.76352902  0.97781540  0.94475532    -0.71700
O2936       O  0.76731491  0.97902795  0.88668705    -0.71700
O2937       O  0.73301380  0.51057645  0.88836147    -0.71700
O2938       O  0.73166642  0.50913698  0.94652344    -0.71700
O2939       O  0.77571424  0.55364518  0.91767361    -0.71700
O2940       O  0.69321578  0.96310124  0.91334410    -0.71800
V2941       V  0.76497659  0.97906266  0.91572302     1.35200
V2942       V  0.73296692  0.50938232  0.91741840     1.35200
C2943       C  0.69297595  0.93392767  0.91379892     0.77600
C2944       C  0.80509396  0.55445383  0.91734087     0.77600
C2945       C  0.74714690  0.99062164  0.95422974     0.77500
C2946       C  0.75376331  0.99378903  0.87632257     0.77500
O2947       O  0.76597957  0.79752737  0.91495080    -0.71700
O2948       O  0.67824254  0.71085446  0.91361672    -0.71900
O2949       O  0.72136180  0.75216978  0.94341106    -0.71700
O2950       O  0.72264584  0.75614122  0.88527073    -0.71700
O2951       O  0.75133896  0.72736444  0.88435083    -0.71700
O2952       O  0.74907156  0.72232670  0.94249957    -0.71700
O2953       O  0.70650808  0.68159795  0.91226985    -0.71700
O2954       O  0.79404956  0.76797697  0.91453957    -0.71800
V2955       V  0.72261741  0.75363002  0.91430805     1.35200
V2956       V  0.74968618  0.72538002  0.91343100     1.35200
C2957       C  0.79499031  0.79751166  0.91471123     0.77600
C2958       C  0.67740959  0.68137244  0.91289367     0.77600
C2959       C  0.73448228  0.73608971  0.95290380     0.77500
C2960       C  0.73752934  0.74278953  0.87481833     0.77500
O2961       O  0.50925083  0.51495657  0.55505573    -0.71700
O2962       O  0.50954886  0.51608279  0.61301608    -0.71900
O2963       O  0.55237351  0.51448880  0.58417080    -0.71700
O2964       O  0.96749421  0.51889924  0.58418205    -0.71700
O2965       O  0.93751488  0.95909534  0.58113253    -0.71700
O2966       O  0.52209137  0.95421005  0.58277547    -0.71700
O2967       O  0.97978885  0.95861777  0.61100503    -0.71700
O2968       O  0.98157969  0.95872702  0.55257671    -0.71800
V2969       V  0.50873576  0.51425816  0.58401102     1.35200
V2970       V  0.98123000  0.95966166  0.58181243     1.35200
C2971       C  0.49379302  0.48624792  0.54502311     0.77600
C2972       C  0.49579074  0.48753339  0.62319730     0.77600
C2973       C  0.55231346  0.48532173  0.58415195     0.77500
C2974       C  0.93795740  0.49032437  0.58495676     0.77500
O2975       O  0.96079739  0.74017957  0.58484313    -0.71700
O2976       O  0.54677535  0.73800241  0.58066694    -0.71900
O2977       O  0.00449259  0.73870808  0.61320357    -0.71700
O2978       O  0.00405042  0.74184893  0.55523882    -0.71700
O2979       O  0.53197121  0.79776461  0.55539661    -0.71700
O2980       O  0.53045736  0.79212110  0.61355888    -0.71700
O2981       O  0.57491485  0.79535192  0.58397040    -0.71700
O2982       O  0.98932288  0.79778667  0.58571635    -0.71800
V2983       V  0.00497227  0.74150064  0.58424469     1.35200
V2984       V  0.53086857  0.79394038  0.58444703     1.35200
C2985       C  0.96008008  0.76891672  0.58536977     0.77600
C2986       C  0.57595002  0.76702059  0.58173795     0.77600
C2987       C  0.51672623  0.76228459  0.62247287     0.77500
C2988       C  0.51588113  0.76981147  0.54466535     0.77500
O2989       O  0.75968351  0.51502661  0.55580467    -0.71700
O2990       O  0.75819035  0.51584825  0.61373178    -0.71900
O2991       O  0.80225932  0.51504246  0.58541405    -0.71700
O2992       O  0.71574939  0.51563612  0.58426251    -0.71700
O2993       O  0.68719426  0.95803396  0.58273900    -0.71700
O2994       O  0.77349743  0.95704589  0.58094686    -0.71700
O2995       O  0.73189445  0.95778912  0.61096068    -0.71700
O2996       O  0.72919146  0.95765585  0.55276094    -0.71800
V2997       V  0.75842284  0.51424627  0.58479015     1.35200
V2998       V  0.73097151  0.95872865  0.58185779     1.35200
C2999       C  0.74455670  0.48619347  0.54583277     0.77600
C3000       C  0.74434558  0.48721273  0.62381108     0.77600
C3001       C  0.80265849  0.48613503  0.58526080     0.77500
C3002       C  0.68632870  0.48702777  0.58495745     0.77500
O3003       O  0.71188056  0.74048055  0.57829802    -0.71700
O3004       O  0.80006654  0.74381848  0.58167358    -0.71900
O3005       O  0.75194115  0.73924638  0.60883808    -0.71700
O3006       O  0.75987836  0.74526941  0.55108505    -0.71700
O3007       O  0.78570927  0.80275426  0.55265750    -0.71700
O3008       O  0.77995145  0.79678397  0.61085781    -0.71700
O3009       O  0.82747677  0.80139642  0.58282862    -0.71700
O3010       O  0.73859157  0.79790146  0.58087144    -0.71800
V3011       V  0.75657925  0.74337517  0.57998144     1.35200
V3012       V  0.78253263  0.79867592  0.58176090     1.35200
C3013       C  0.70994211  0.76846320  0.57937594     0.77600
C3014       C  0.82890599  0.77301136  0.58281544     0.77600
C3015       C  0.76416848  0.76694483  0.61978279     0.77500
C3016       C  0.77294077  0.77476286  0.54189479     0.77500
O3017       O  0.96820892  0.93964822  0.74919130    -0.71700
O3018       O  0.55847432  0.52515804  0.75121164    -0.71900
O3019       O  0.51064369  0.98451554  0.77956707    -0.71700
O3020       O  0.50886778  0.97912596  0.72149084    -0.71700
O3021       O  0.98229688  0.51009208  0.72134753    -0.71700
O3022       O  0.98108751  0.50938292  0.77966001    -0.71700
O3023       O  0.52882347  0.55300367  0.75187335    -0.71700
O3024       O  0.94053251  0.96942149  0.74792243    -0.71800
V3025       V  0.50924428  0.98250729  0.75050700     1.35200
V3026       V  0.98225780  0.50930395  0.75049494     1.35200
C3027       C  0.93929774  0.93972080  0.74832642     0.77600
C3028       C  0.55841412  0.55422970  0.75159379     0.77600
C3029       C  0.49860929  0.49410539  0.79016996     0.77500
C3030       C  0.50189248  0.49513371  0.71202533     0.77500
O3031       O  0.94547204  0.72210094  0.74921665    -0.71700
O3032       O  0.53135336  0.80152595  0.75087601    -0.71900
O3033       O  0.99329289  0.76824166  0.72241033    -0.71700
O3034       O  0.98710095  0.76008163  0.78047747    -0.71700
O3035       O  0.51672057  0.72786257  0.77840224    -0.71700
O3036       O  0.51739921  0.73041696  0.72032813    -0.71700
O3037       O  0.56045887  0.77311928  0.74981469    -0.71700
O3038       O  0.97153440  0.69068811  0.74886778    -0.71800
V3039       V  0.99056437  0.76356136  0.75143845     1.35200
V3040       V  0.51638762  0.72968560  0.74936518     1.35200
C3041       C  0.94310662  0.69194762  0.74857575     0.77600
C3042       C  0.56071595  0.80240690  0.75027015     0.77600
C3043       C  0.50412897  0.74619049  0.71070961     0.77500
C3044       C  0.50195542  0.74144010  0.78875240     0.77500
O3045       O  0.69518774  0.96469640  0.74748164    -0.71700
O3046       O  0.77946497  0.55866143  0.74982532    -0.71900
O3047       O  0.73481482  0.51261244  0.72190248    -0.71700
O3048       O  0.73697409  0.51597171  0.77986021    -0.71700
O3049       O  0.76868171  0.98153736  0.77749420    -0.71700
O3050       O  0.76593498  0.97749131  0.71940123    -0.71700
O3051       O  0.80865402  0.53029396  0.74964627    -0.71700
O3052       O  0.72400471  0.93611325  0.74956085    -0.71800
V3053       V  0.73669529  0.51391126  0.75088169     1.35200
V3054       V  0.76687495  0.98011042  0.74843321     1.35200
C3055       C  0.69469230  0.93536803  0.74882106     0.77600
C3056       C  0.80889531  0.55945376  0.74896729     0.77600
C3057       C  0.75311174  0.99327751  0.70935018     0.77500
C3058       C  0.75301964  0.99485232  0.78728328     0.77500
O3059       O  0.76114294  0.73720218  0.77545277    -0.71700
O3060       O  0.75838067  0.73558322  0.71738961    -0.71900
O3061       O  0.80285459  0.78013592  0.74562552    -0.71700
O3062       O  0.71672673  0.69264070  0.74729228    -0.71700
O3063       O  0.68737692  0.72077089  0.74639335    -0.71700
O3064       O  0.77399831  0.80872456  0.74747536    -0.71700
O3065       O  0.73162262  0.76645555  0.71780496    -0.71700
O3066       O  0.73001264  0.76347009  0.77598620    -0.71800
V3067       V  0.75920934  0.73695501  0.74643249     1.35200
V3068       V  0.73122538  0.76427522  0.74688280     1.35200
C3069       C  0.74540607  0.74985157  0.78572168     0.77600
C3070       C  0.74549678  0.75167394  0.70771942     0.77600
C3071       C  0.80330649  0.80942900  0.74641175     0.77500
C3072       C  0.68723686  0.69160908  0.74724904     0.77500
C3073       C  0.90801517  0.65886962  0.74768262     0.00000
C3074       C  0.90637607  0.62760348  0.74051296    -0.11900
C3075       C  0.87432090  0.59531081  0.74012058     0.02200
C3076       C  0.84290644  0.59357645  0.74746933    -0.00100
C3077       C  0.84425368  0.62504722  0.75397785    -0.11800
C3078       C  0.87626584  0.65749842  0.75410677     0.02100
H3079       H  0.93025316  0.62837280  0.73502852     0.15100
H3080       H  0.82035013  0.62421446  0.75946639     0.15100
C3081       C  0.87561577  0.68849007  0.76159269     0.36700
C3082       C  0.87450043  0.56475497  0.73147361     0.36600
N3083       N  0.87493510  0.71325361  0.76755620    -0.43600
N3084       N  0.87463293  0.54034423  0.72443730    -0.43600
C3085       C  0.59455517  0.83680633  0.75001655     0.00000
C3086       C  0.62595900  0.83704605  0.75509011    -0.11900
C3087       C  0.65871382  0.86858070  0.75494401     0.02200
C3088       C  0.66065092  0.90108775  0.74948863    -0.00100
C3089       C  0.62917625  0.90086269  0.74450229    -0.11800
C3090       C  0.59640453  0.86929229  0.74464051     0.02100
H3091       H  0.62496650  0.81244104  0.75938173     0.15100
H3092       H  0.63012539  0.92543407  0.74018262     0.15100
C3093       C  0.56551835  0.87121088  0.73853040     0.36700
C3094       C  0.68953745  0.86644157  0.76087471     0.36600
N3095       N  0.54087691  0.87288392  0.73358934    -0.43600
N3096       N  0.71411305  0.86453860  0.76566291    -0.43600
C3097       C  0.83761235  0.84328804  0.74636805     0.00000
C3098       C  0.86877187  0.84157913  0.74873818    -0.11900
C3099       C  0.90204549  0.87228288  0.74932362     0.02200
C3100       C  0.90479971  0.90606059  0.74761583    -0.00100
C3101       C  0.87367404  0.90779631  0.74490997    -0.11800
C3102       C  0.84034587  0.87696845  0.74415414     0.02100
H3103       H  0.86727321  0.81599991  0.75033072     0.15100
H3104       H  0.87526810  0.93340497  0.74323710     0.15100
C3105       C  0.80983463  0.88105975  0.74065773     0.36700
C3106       C  0.93253355  0.86778208  0.75180868     0.36600
N3107       N  0.78559882  0.88465064  0.73776586    -0.43600
N3108       N  0.95680052  0.86391704  0.75376236    -0.43600
C3109       C  0.59178937  0.58907757  0.75123162     0.00000
C3110       C  0.58950014  0.61994407  0.74832918    -0.11900
C3111       C  0.61985502  0.65355140  0.74710036     0.02200
C3112       C  0.65378783  0.65689119  0.74856041    -0.00100
C3113       C  0.65605941  0.62606673  0.75180920    -0.11800
C3114       C  0.62568052  0.59250249  0.75329532     0.02100
H3115       H  0.56375060  0.61793271  0.74683705     0.15100
H3116       H  0.68179928  0.62807795  0.75337712     0.15100
C3117       C  0.63046668  0.56245629  0.75731198     0.36700
C3118       C  0.61492459  0.68378723  0.74431155     0.36600
N3119       N  0.63452970  0.53855208  0.76060491    -0.43600
N3120       N  0.61070098  0.70786078  0.74216323    -0.43600
C3121       C  0.75944055  0.76390365  0.64240809     0.00000
C3122       C  0.74710130  0.73033002  0.65150090    -0.11900
C3123       C  0.74174966  0.72557893  0.67266879     0.02200
C3124       C  0.74826093  0.75464217  0.68521496    -0.00100
C3125       C  0.75982259  0.78800070  0.67625350    -0.11800
C3126       C  0.76582891  0.79302453  0.65511213     0.02100
H3127       H  0.74175133  0.70758989  0.64208881     0.15100
H3128       H  0.76516394  0.81049829  0.68590913     0.15100
C3129       C  0.77855617  0.82838382  0.64712005     0.36700
C3130       C  0.72862344  0.69040390  0.68105540     0.36600
N3131       N  0.78890645  0.85681593  0.64083505    -0.43600
N3132       N  0.71802547  0.66220588  0.68776313    -0.43600
C3133       C  0.75259610  0.99234841  0.68674735     0.00000
C3134       C  0.74909279  0.46708039  0.67997331    -0.11900
C3135       C  0.74780235  0.46361112  0.65862563     0.02200
C3136       C  0.74895118  0.98764641  0.64351965    -0.00100
C3137       C  0.75575340  0.01911245  0.65357807    -0.11800
C3138       C  0.75752481  0.02167220  0.67494706     0.02100
H3139       H  0.75228597  0.44812773  0.68920847     0.15100
H3140       H  0.75955449  0.04188333  0.64473355     0.15100
C3141       C  0.76575587  0.05515082  0.68426923     0.36700
C3142       C  0.75191576  0.43546512  0.64970021     0.36600
N3143       N  0.77248440  0.08204133  0.69168410    -0.43600
N3144       N  0.75526172  0.41295918  0.64250938    -0.43600
C3145       C  0.86302564  0.77308280  0.58402834     0.00000
C3146       C  0.86180070  0.74009335  0.58386893    -0.11900
C3147       C  0.89265917  0.73784496  0.58457472     0.02200
C3148       C  0.92615843  0.76928188  0.58534824    -0.00100
C3149       C  0.92743506  0.80230708  0.58583497    -0.11800
C3150       C  0.89648366  0.80453775  0.58527660     0.02100
H3151       H  0.83645351  0.71558536  0.58312784     0.15100
H3152       H  0.95283566  0.82675777  0.58660687     0.15100
C3153       C  0.90029720  0.83953106  0.58609137     0.36700
C3154       C  0.88864961  0.70274484  0.58445979     0.36600
N3155       N  0.90369654  0.86770636  0.58682001    -0.43600
N3156       N  0.88520186  0.67453062  0.58440205    -0.43600
C3157       C  0.61041904  0.76780256  0.58049057     0.00000
C3158       C  0.61055731  0.73553717  0.58119536    -0.11900
C3159       C  0.64231937  0.73480547  0.58062133     0.02200
C3160       C  0.67515772  0.76705778  0.57920823    -0.00100
C3161       C  0.67493738  0.79921838  0.57814842    -0.11800
C3162       C  0.64326339  0.79997054  0.57875660     0.02100
H3163       H  0.58569761  0.71061083  0.58250209     0.15100
H3164       H  0.69977163  0.82419125  0.57690939     0.15100
C3165       C  0.64575864  0.83436326  0.57743927     0.36700
C3166       C  0.64006045  0.70052058  0.58199241     0.36600
N3167       N  0.64794976  0.86199936  0.57640238    -0.43600
N3168       N  0.63817157  0.67302482  0.58311966    -0.43600
C3169       C  0.51457833  0.75930267  0.64513740     0.00000
C3170       C  0.01047485  0.73306802  0.65584683    -0.11900
C3171       C  0.00739449  0.72882737  0.67712757     0.02200
C3172       C  0.50689954  0.74955062  0.68811918    -0.00100
C3173       C  0.50998585  0.78026863  0.67903464    -0.11800
C3174       C  0.51395923  0.78544886  0.65780184     0.02100
H3175       H  0.00812795  0.71134417  0.64648560     0.15100
H3176       H  0.50965632  0.80054903  0.68859048     0.15100
C3177       C  0.51611313  0.81729337  0.64950751     0.36700
C3178       C  0.00044230  0.69520592  0.68560638     0.36600
N3179       N  0.51781195  0.84281693  0.64289540    -0.43600
N3180       N  0.99487987  0.66827456  0.69238322    -0.43600
C3181       C  0.83688632  0.48641704  0.58561284     0.00000
C3182       C  0.86851061  0.51937517  0.58444066    -0.11900
C3183       C  0.90166476  0.52161448  0.58449341     0.02200
C3184       C  0.90380239  0.49020319  0.58550436    -0.00100
C3185       C  0.87168146  0.95577344  0.58295824    -0.11800
C3186       C  0.83876836  0.95402987  0.58309940     0.02100
H3187       H  0.86748657  0.54376730  0.58344068     0.15100
H3188       H  0.87259827  0.93164673  0.58579198     0.15100
C3189       C  0.80776635  0.91977588  0.58697727     0.36700
C3190       C  0.93271074  0.55664491  0.58356323     0.36600
N3191       N  0.78307416  0.89222913  0.59004907    -0.43600
N3192       N  0.95743329  0.58482777  0.58289730    -0.43600
C3193       C  0.65235308  0.48721584  0.58520948     0.00000
C3194       C  0.62099655  0.95382684  0.58471026    -0.11900
C3195       C  0.58784781  0.95164273  0.58475155     0.02200
C3196       C  0.58613536  0.48483077  0.58462093    -0.00100
C3197       C  0.61802963  0.51744827  0.58594003    -0.11800
C3198       C  0.65082028  0.51897671  0.58641228     0.02100
H3199       H  0.62198975  0.92940304  0.58564685     0.15100
H3200       H  0.61749546  0.54212307  0.58674584     0.15100
C3201       C  0.68211994  0.55364401  0.58849508     0.36700
C3202       C  0.55679203  0.91668255  0.58631421     0.36600
N3203       N  0.70706905  0.58148339  0.59025099    -0.43600
N3204       N  0.53206602  0.88858347  0.58759423    -0.43600
C3205       C  0.49740993  0.48874753  0.64599468     0.00000
C3206       C  0.99384060  0.51756344  0.65528340    -0.11900
C3207       C  0.99327286  0.51964778  0.67666654     0.02200
C3208       C  0.50152033  0.49404737  0.68933915    -0.00100
C3209       C  0.49221529  0.96111651  0.67888640    -0.11800
C3210       C  0.49125789  0.95762258  0.65747440     0.02100
H3211       H  0.99125685  0.53697676  0.64613500     0.15100
H3212       H  0.49059243  0.93981805  0.68832072     0.15100
C3213       C  0.48894274  0.92588678  0.64884502     0.36700
C3214       C  0.98997041  0.54831588  0.68558115     0.36600
N3215       N  0.48704437  0.90043117  0.64193381    -0.43600
N3216       N  0.98724445  0.57130431  0.69262569    -0.43600
C3217       C  0.73923052  0.74519845  0.85201987     0.00000
C3218       C  0.75612703  0.72961408  0.84141354    -0.11900
C3219       C  0.75876345  0.73090239  0.82002167     0.02200
C3220       C  0.74438742  0.74837264  0.80853681    -0.00100
C3221       C  0.72766053  0.76415446  0.81913393    -0.11800
C3222       C  0.72486225  0.76270120  0.84054377     0.02100
H3223       H  0.76732386  0.71605452  0.84985527     0.15100
H3224       H  0.71640152  0.77762801  0.81066013     0.15100
C3225       C  0.70685221  0.77930904  0.85006303     0.36700
C3226       C  0.77597765  0.71348185  0.81049930     0.36600
N3227       N  0.69232025  0.79261041  0.85757207    -0.43600
N3228       N  0.78972279  0.69941719  0.80294642    -0.43600
C3229       C  0.75296299  0.99508876  0.81006288     0.00000
C3230       C  0.76937872  0.97885297  0.82046626    -0.11900
C3231       C  0.77012197  0.97797231  0.84188644     0.02200
C3232       C  0.75437683  0.99395141  0.85353769    -0.00100
C3233       C  0.72171455  0.49802252  0.84509689    -0.11800
C3234       C  0.72185961  0.49940882  0.82368502     0.02100
H3235       H  0.78161818  0.96647150  0.81184590     0.15100
H3236       H  0.69909139  0.49566404  0.85344112     0.15100
C3237       C  0.69116179  0.49685059  0.81356310     0.36700
C3238       C  0.78702166  0.96012299  0.85121847     0.36600
N3239       N  0.66651491  0.49476912  0.80551420    -0.43600
N3240       N  0.80053509  0.94567309  0.85854234    -0.43600
C3241       C  0.83903035  0.58855060  0.91652306     0.00000
C3242       C  0.86948614  0.58824401  0.90971074    -0.11900
C3243       C  0.90243466  0.61949654  0.90905772     0.02200
C3244       C  0.90561662  0.65175625  0.91612301    -0.00100
C3245       C  0.87497272  0.65234266  0.92210759    -0.11800
C3246       C  0.84182429  0.62135023  0.92208007     0.02100
H3247       H  0.86749547  0.56358182  0.90450234     0.15100
H3248       H  0.87688761  0.67709775  0.92704132     0.15100
C3249       C  0.81145054  0.62431062  0.92799317     0.36700
C3250       C  0.93191360  0.61784696  0.90006767     0.36600
N3251       N  0.78712361  0.62684797  0.93252987    -0.43600
N3252       N  0.95539104  0.61659879  0.89262325    -0.43600
C3253       C  0.59481805  0.83469322  0.91556855     0.00000
C3254       C  0.59678861  0.86362203  0.90488198    -0.11900
C3255       C  0.62859048  0.89599853  0.90375263     0.02200
C3256       C  0.65922574  0.89983815  0.91356839    -0.00100
C3257       C  0.65731701  0.87080561  0.92413739    -0.11800
C3258       C  0.62543961  0.83848147  0.92536968     0.02100
H3259       H  0.57347258  0.86079532  0.89714458     0.15100
H3260       H  0.68055407  0.87368901  0.93200285     0.15100
C3261       C  0.62452207  0.81047249  0.93775305     0.36700
C3262       C  0.62915475  0.92434008  0.89188937     0.36600
N3263       N  0.62377220  0.78816816  0.94780431    -0.43600
N3264       N  0.62955215  0.94698426  0.88234949    -0.43600
C3265       C  0.49944820  0.74052627  0.85510499     0.00000
C3266       C  0.01242748  0.72473750  0.84569370    -0.11900
C3267       C  0.01275475  0.72388136  0.82424546     0.02200
C3268       C  0.50152952  0.74041234  0.81156557    -0.00100
C3269       C  0.47874398  0.74917451  0.82202912    -0.11800
C3270       C  0.47753870  0.74942126  0.84346158     0.02100
H3271       H  0.02431603  0.71186492  0.85414900     0.15100
H3272       H  0.46163527  0.75593549  0.81343227     0.15100
C3273       C  0.45322277  0.75869477  0.85286806     0.36700
C3274       C  0.02812807  0.70473238  0.81466219     0.36600
N3275       N  0.43376856  0.76625337  0.86031003    -0.43600
N3276       N  0.04029196  0.68913772  0.80712293    -0.43600
C3277       C  0.82933346  0.83108222  0.91461438     0.00000
C3278       C  0.85864098  0.83180427  0.92405364    -0.11900
C3279       C  0.89174968  0.86295188  0.92444762     0.02200
C3280       C  0.89589821  0.89428270  0.91528094    -0.00100
C3281       C  0.86665555  0.89341260  0.90564139    -0.11800
C3282       C  0.83369102  0.86214164  0.90501063     0.02100
H3283       H  0.85557286  0.80803686  0.93140321     0.15100
H3284       H  0.86974775  0.91708271  0.89815122     0.15100
C3285       C  0.80550200  0.86224064  0.89339806     0.36700
C3286       C  0.92050119  0.86212057  0.93496483     0.36600
N3287       N  0.78306022  0.86226808  0.88392072    -0.43600
N3288       N  0.94343107  0.86127842  0.94340868    -0.43600
C3289       C  0.58109313  0.57993838  0.91475357     0.00000
C3290       C  0.58102164  0.61060811  0.92151319    -0.11900
C3291       C  0.61169824  0.64399694  0.92074388     0.02200
C3292       C  0.64351432  0.64720078  0.91304202    -0.00100
C3293       C  0.64340070  0.61659529  0.90591999    -0.11800
C3294       C  0.61265190  0.58322380  0.90659647     0.02100
H3295       H  0.55695639  0.60848764  0.92776967     0.15100
H3296       H  0.66746760  0.61870776  0.89967756     0.15100
C3297       C  0.61423921  0.55322223  0.89825017     0.36700
C3298       C  0.60962524  0.67401699  0.92857697     0.36600
N3299       N  0.61559536  0.52928200  0.89148694    -0.43600
N3300       N  0.60752222  0.69784040  0.93482654    -0.43600
C3301       C  0.48912500  0.48719589  0.85631782     0.00000
C3302       C  0.51750193  0.99453632  0.84520832    -0.11900
C3303       C  0.52096578  0.99751874  0.82384815     0.02200
C3304       C  0.49638110  0.49233222  0.81296502    -0.00100
C3305       C  0.98358398  0.51441331  0.82315784    -0.11800
C3306       C  0.98123291  0.51337809  0.84460215     0.02100
H3307       H  0.53818244  0.99394702  0.85416381     0.15100
H3308       H  0.97797090  0.53264510  0.81483117     0.15100
C3309       C  0.97252259  0.53777552  0.85452240     0.36700
C3310       C  0.55281625  0.00100793  0.81478013     0.36600
N3311       N  0.96570875  0.55751269  0.86238557    -0.43600
N3312       N  0.57845195  0.00402241  0.80756016    -0.43600
C3313       C  0.73371794  0.73010793  0.01899943     0.00000
C3314       C  0.70687978  0.73288125  0.00876305    -0.19100
C3315       C  0.70653453  0.73495780  0.98734817     0.02200
C3316       C  0.73315529  0.73354092  0.97562913    -0.00100
C3317       C  0.75926604  0.72945099  0.98588449    -0.11800
C3318       C  0.75993697  0.72801671  0.00732882     0.02100
H3319       H  0.68652720  0.73435558  0.01756220     0.15100
H3320       H  0.77965920  0.72797084  0.97714294     0.15100
C3321       C  0.78737345  0.72357177  0.01687799     0.36700
C3322       C  0.67825096  0.73818032  0.97799187     0.36600
N3323       N  0.80936877  0.71998371  0.02449501    -0.43600
N3324       N  0.65553015  0.74095667  0.97073243    -0.43600
C3325       C  0.73031195  0.88871152  0.07902779     0.00000
C3326       C  0.76264678  0.88976771  0.08247518    -0.11900
C3327       C  0.76493184  0.85884746  0.08216341     0.02200
C3328       C  0.73414454  0.82556131  0.07850903    -0.00100
C3329       C  0.70197890  0.82457158  0.07446299    -0.11800
C3330       C  0.69980067  0.85562163  0.07451288     0.02100
H3331       H  0.78642201  0.91492117  0.08569966     0.15100
H3332       H  0.67828846  0.79937683  0.07117073     0.15100
C3333       C  0.66602002  0.85243388  0.06947525     0.36700
C3334       C  0.79923229  0.86245582  0.08608391     0.36600
N3335       N  0.63891554  0.84968480  0.06534055    -0.43600
N3336       N  0.82679789  0.86553190  0.08917035    -0.43600
C3337       C  0.73296442  0.57496103  0.08505163     0.00000
C3338       C  0.76535072  0.60656986  0.08216738    -0.11900
C3339       C  0.76705447  0.63950133  0.08136361     0.02200
C3340       C  0.73567303  0.64134858  0.08354338    -0.00100
C3341       C  0.70338709  0.60980917  0.08684564    -0.11800
C3342       C  0.70168459  0.57686928  0.08765107     0.02100
H3343       H  0.78960398  0.60563892  0.08018925     0.15100
H3344       H  0.67913954  0.61075492  0.08881446     0.15100
C3345       C  0.66738307  0.54582505  0.09127856     0.36700
C3346       C  0.80139832  0.67053455  0.07784908     0.36600
N3347       N  0.63982119  0.52108531  0.09417686    -0.43600
N3348       N  0.82900009  0.69525758  0.07502705    -0.43600
C3349       C  0.74359916  0.98824507  0.97682210     0.00000
C3350       C  0.71581149  0.49389612  0.98900173    -0.11900
C3351       C  0.71196739  0.49098935  0.01035678     0.02200
C3352       C  0.73655565  0.48669429  0.02231495    -0.00100
C3353       C  0.76397131  0.98395866  0.01082097    -0.11800
C3354       C  0.76854052  0.98585049  0.98956541     0.02100
H3355       H  0.69669124  0.49711908  0.98000248     0.15100
H3356       H  0.78349045  0.98247834  0.02044069     0.15100
C3357       C  0.79961530  0.98627356  0.98144527     0.36700
C3358       C  0.68350294  0.49407205  0.01960738     0.36600
N3359       N  0.82450591  0.98652808  0.97501081    -0.43600
N3360       N  0.66079499  0.49669458  0.02704251    -0.43600
C3361       C  0.00367522  0.74669712  0.02322470     0.00000
C3362       C  0.97578821  0.74733721  0.01288252    -0.11900
C3363       C  0.97359277  0.74562235  0.99149127     0.02200
C3364       C  0.99953893  0.74273222  0.97993068    -0.00100
C3365       C  0.53151743  0.74516711  0.98901575    -0.11800
C3366       C  0.53417096  0.74713648  0.01043468     0.02100
H3367       H  0.95577142  0.74963711  0.02154382     0.15100
H3368       H  0.55102111  0.74216319  0.98025613     0.15100
C3369       C  0.56244266  0.74408839  0.01999327     0.36700
C3370       C  0.94393232  0.74616852  0.98197693     0.36600
N3371       N  0.58511365  0.74165826  0.02763113    -0.43600
N3372       N  0.92013918  0.74666776  0.97443984    -0.43600
C3373       C  0.50832543  0.90939620  0.08382403     0.00000
C3374       C  0.53881485  0.90953584  0.09101147    -0.11900
C3375       C  0.54087686  0.87840754  0.09119294     0.02200
C3376       C  0.51202027  0.84628047  0.08388265    -0.00100
C3377       C  0.97891420  0.84594583  0.09026394    -0.11800
C3378       C  0.97741087  0.87731511  0.09020729     0.02100
H3379       H  0.56099673  0.93399009  0.09682832     0.15100
H3380       H  0.95552000  0.82140893  0.09485529     0.15100
C3381       C  0.94471677  0.87525260  0.09671260     0.36700
C3382       C  0.57232324  0.88012885  0.09969455     0.36600
N3383       N  0.91847953  0.87345578  0.10195340    -0.43600
N3384       N  0.59752013  0.88161885  0.10657901    -0.43600
C3385       C  0.50763656  0.59400337  0.08218184     0.00000
C3386       C  0.97165806  0.59265457  0.09021337    -0.11900
C3387       C  0.97162388  0.62476415  0.09155088     0.02200
C3388       C  0.50741865  0.65894995  0.08351665    -0.00100
C3389       C  0.53733572  0.65791170  0.07647440    -0.11800
C3390       C  0.53766489  0.62593223  0.07560434     0.02100
H3391       H  0.94946765  0.56873078  0.09648956     0.15100
H3392       H  0.56049213  0.68215277  0.07130740     0.15100
C3393       C  0.56886511  0.62682010  0.06731946     0.36700
C3394       C  0.94173315  0.62451582  0.10132797     0.36600
N3395       N  0.59385454  0.62761944  0.06060963    -0.43600
N3396       N  0.91773329  0.62421020  0.10915545    -0.43600
C3397       C  0.48872230  0.98714126  0.97879931     0.00000
C3398       C  0.52522044  0.49060098  0.98965160    -0.11900
C3399       C  0.52895801  0.49302561  0.01107523     0.02200
C3400       C  0.49775880  0.99349984  0.02197905    -0.00100
C3401       C  0.96979112  0.99260728  0.01088513    -0.11800
C3402       C  0.96551031  0.98963933  0.98955397     0.02100
H3403       H  0.54559842  0.48995475  0.98042720     0.15100
H3404       H  0.94977293  0.99379066  0.02018764     0.15100
C3405       C  0.93375913  0.98704481  0.98091875     0.36700
C3406       C  0.55942159  0.49335408  0.02004932     0.36600
N3407       N  0.90824772  0.98485989  0.97404548    -0.43600
N3408       N  0.58379467  0.49355668  0.02725703    -0.43600
C3409       C  0.77230283  0.77613553  0.51912837     0.00000
C3410       C  0.79425550  0.80834475  0.50884014    -0.11900
C3411       C  0.79387273  0.81050547  0.48733670     0.02200
C3412       C  0.77138823  0.77982164  0.47569604    -0.00100
C3413       C  0.74922977  0.74793210  0.48609183    -0.11800
C3414       C  0.74914985  0.74585051  0.50740103     0.02100
H3415       H  0.81186218  0.83193850  0.51759701     0.15100
H3416       H  0.73114477  0.72425706  0.47753497     0.15100
C3417       C  0.72367613  0.71242033  0.51662738     0.36700
C3418       C  0.81696869  0.84437158  0.47777395     0.36600
N3419       N  0.70310118  0.68567663  0.52395800    -0.43600
N3420       N  0.83540215  0.87159558  0.47016039    -0.43600
C3421       C  0.74904869  0.49140746  0.47955541     0.00000
C3422       C  0.72631149  0.95941481  0.48650096    -0.11900
C3423       C  0.72453036  0.95659952  0.50787726     0.02200
C3424       C  0.74516646  0.48678366  0.52301872    -0.00100
C3425       C  0.76394790  0.51990602  0.51311352    -0.11800
C3426       C  0.76599605  0.52255366  0.49173263     0.02100
H3427       H  0.71102174  0.93553630  0.47742483     0.15100
H3428       H  0.77731799  0.54415145  0.52210469     0.15100
C3429       C  0.78582173  0.55773925  0.48298800     0.36700
C3430       C  0.70243735  0.92172588  0.51661881     0.36600
N3431       N  0.80172407  0.58606167  0.47615067    -0.43600
N3432       N  0.68477165  0.89369159  0.52351537    -0.43600
C3433       C  0.51428550  0.77172913  0.52207281     0.00000
C3434       C  0.03134643  0.80540592  0.51313370    -0.11900
C3435       C  0.03046085  0.80815651  0.49176874     0.02200
C3436       C  0.51419939  0.77596319  0.47882925    -0.00100
C3437       C  0.48619836  0.74737761  0.48915994    -0.11800
C3438       C  0.48582302  0.74514869  0.51054005     0.02100
H3439       H  0.04371054  0.82959091  0.52220929     0.15100
H3440       H  0.46425698  0.72676484  0.48048853     0.15100
C3441       C  0.45519702  0.71596334  0.52015648     0.36700
C3442       C  0.04512734  0.84333797  0.48311034     0.36600
N3443       N  0.43052195  0.69264427  0.52778894    -0.43600
N3444       N  0.05665260  0.87158297  0.47628262    -0.43600
C3445       C  0.92360931  0.77975187  0.41533769     0.00000
C3446       C  0.89267804  0.74743964  0.41072528    -0.11900
C3447       C  0.85959349  0.74518856  0.40913459     0.02200
C3448       C  0.85672051  0.77588947  0.41215568    -0.00100
C3449       C  0.88771118  0.80834319  0.41650849    -0.11800
C3450       C  0.92083069  0.81055390  0.41820579     0.02100
H3451       H  0.89422472  0.72354206  0.40823531     0.15100
H3452       H  0.88605985  0.83216611  0.41907341     0.15100
C3453       C  0.95105564  0.84459571  0.42348176     0.36700
C3454       C  0.82934705  0.71097418  0.40417871     0.36600
N3455       N  0.97514951  0.87193166  0.42775298    -0.43600
N3456       N  0.80523139  0.68346450  0.40022915    -0.43600
C3457       C  0.67148941  0.77483737  0.41848479     0.00000
C3458       C  0.64017140  0.74404137  0.41263155    -0.11900
C3459       C  0.60761843  0.74308162  0.41256638     0.02200
C3460       C  0.60588844  0.77356445  0.41849018    -0.00100
C3461       C  0.63711975  0.80410884  0.42485063    -0.11800
C3462       C  0.66966169  0.80492976  0.42506261     0.02100
H3463       H  0.64118631  0.72076945  0.40758863     0.15100
H3464       H  0.63611718  0.82739640  0.42987196     0.15100
C3465       C  0.70034751  0.83659226  0.43277395     0.36700
C3466       C  0.57685820  0.71070497  0.40565224     0.36600
N3467       N  0.72481513  0.86192137  0.43907450    -0.43600
N3468       N  0.55228293  0.68470185  0.40012647    -0.43600
C3469       C  0.49529437  0.48719993  0.47870450     0.00000
C3470       C  0.50278826  0.51792647  0.48977131    -0.11900
C3471       C  0.50172852  0.51801383  0.51114123     0.02200
C3472       C  0.49343694  0.48677545  0.52221985    -0.00100
C3473       C  0.97943827  0.95663061  0.50885962    -0.11800
C3474       C  0.97858228  0.95634736  0.48732207     0.02100
H3475       H  0.50930588  0.54226264  0.48168701     0.15100
H3476       H  0.96572114  0.93155257  0.51701557     0.15100
C3477       C  0.95899483  0.92239478  0.47709188     0.36700
C3478       C  0.50845594  0.55059396  0.52104697     0.36600
N3479       N  0.94317287  0.89510913  0.46898208    -0.43600
N3480       N  0.51379225  0.57676961  0.52885072    -0.43600
C3481       C  0.90882401  0.49530326  0.41568085     0.00000
C3482       C  0.87599476  0.96490181  0.40987323    -0.11900
C3483       C  0.84279477  0.96261427  0.40981768     0.02200
C3484       C  0.84219161  0.49185345  0.41679083    -0.00100
C3485       C  0.87303245  0.52343754  0.41118656    -0.11800
C3486       C  0.90605091  0.52540834  0.41050107     0.02100
H3487       H  0.87782184  0.94204104  0.40488267     0.15100
H3488       H  0.87138887  0.54676550  0.40709061     0.15100
C3489       C  0.93625876  0.55842018  0.40386417     0.36700
C3490       C  0.81253326  0.92951479  0.40326904     0.36600
N3491       N  0.96040660  0.58487222  0.39849372    -0.43600
N3492       N  0.78837320  0.90286890  0.39810159    -0.43600
C3493       C  0.59462397  0.49671004  0.41754253     0.00000
C3494       C  0.59246423  0.96789793  0.41525349    -0.11900
C3495       C  0.62303156  0.96509685  0.41483716     0.02200
C3496       C  0.65787662  0.49316486  0.41781335    -0.00100
C3497       C  0.65913291  0.52613988  0.41705970    -0.11800
C3498       C  0.62811469  0.52824391  0.41682183     0.02100
H3499       H  0.56684527  0.94365365  0.41555986     0.15100
H3500       H  0.68454174  0.55060274  0.41651252     0.15100
C3501       C  0.63184677  0.56316465  0.41541921     0.36700
C3502       C  0.61838623  0.92973968  0.41444074     0.36600
N3503       N  0.63504566  0.59121872  0.41424654    -0.43600
N3504       N  0.61446516  0.90134124  0.41406799    -0.43600
C3505       C  0.73341414  0.73483919  0.18627140     0.00000
C3506       C  0.76398660  0.74059759  0.17568744    -0.11900
C3507       C  0.76531238  0.74088755  0.15423409     0.02200
C3508       C  0.73548511  0.73541570  0.14268900    -0.00100
C3509       C  0.70475146  0.72925483  0.15324245    -0.11800
C3510       C  0.70347406  0.72904835  0.17474295     0.02100
H3511       H  0.78714822  0.74479259  0.18422798     0.15100
H3512       H  0.68165707  0.72511623  0.14465582     0.15100
C3513       C  0.67152323  0.72416862  0.18441034     0.36700
C3514       C  0.79740261  0.74590217  0.14463999     0.36600
N3515       N  0.64589024  0.72034824  0.19208603    -0.43600
N3516       N  0.82313568  0.74987702  0.13701476    -0.43600
C3517       C  0.74614300  0.75599572  0.30952523     0.00000
C3518       C  0.71768235  0.73344298  0.32227538    -0.11900
C3519       C  0.71994825  0.73788169  0.34362277     0.02200
C3520       C  0.75122872  0.76542277  0.35267145    -0.00100
C3521       C  0.77903916  0.78890727  0.33994748    -0.11800
C3522       C  0.77686674  0.78449753  0.31861712     0.02100
H3523       H  0.69366593  0.71199792  0.31559271     0.15100
H3524       H  0.80294642  0.81037413  0.34672407     0.15100
C3525       C  0.80643811  0.81024766  0.30657065     0.36700
C3526       C  0.68929378  0.71450940  0.35579673     0.36600
N3527       N  0.83018157  0.83099914  0.29699702    -0.43600
N3528       N  0.66462949  0.69590241  0.36550361    -0.43600
C3529       C  0.73618635  0.83324465  0.24581047     0.00000
C3530       C  0.76516207  0.86358108  0.23739819    -0.11900
C3531       C  0.76630983  0.89630181  0.23727234     0.02200
C3532       C  0.73806229  0.89920831  0.24588769    -0.00100
C3533       C  0.70879837  0.86873969  0.25400980    -0.11800
C3534       C  0.70763329  0.83599317  0.25414266     0.02100
H3535       H  0.78699936  0.86172910  0.23074505     0.15100
H3536       H  0.68704549  0.87063886  0.26075335     0.15100
C3537       C  0.67749025  0.80629672  0.26378844     0.36700
C3538       C  0.79643890  0.92600821  0.22766961     0.36600
N3539       N  0.65335788  0.78264211  0.27160231    -0.43600
N3540       N  0.82066562  0.94965041  0.21992727    -0.43600
C3541       C  0.73929313  0.64983753  0.25167199     0.00000
C3542       C  0.77179510  0.65097499  0.25456942    -0.11900
C3543       C  0.77378154  0.61982330  0.25511491     0.02200
C3544       C  0.74259454  0.58632688  0.25266831    -0.00100
C3545       C  0.71003016  0.58516894  0.25020995    -0.11800
C3546       C  0.70803468  0.61626379  0.24961585     0.02100
H3547       H  0.79596281  0.67640070  0.25639346     0.15100
H3548       H  0.68585195  0.55976911  0.24831450     0.15100
C3549       C  0.67349647  0.61243101  0.24626631     0.36700
C3550       C  0.80825533  0.62343722  0.25833573     0.36600
N3551       N  0.64572111  0.60906572  0.24354203    -0.43600
N3552       N  0.83596202  0.62654054  0.26089211    -0.43600
C3553       C  0.73264862  0.48292932  0.14583716     0.00000
C3554       C  0.76014825  0.99015574  0.15332749    -0.11900
C3555       C  0.76323957  0.99371952  0.17460960     0.02200
C3556       C  0.73848102  0.49016256  0.18918360    -0.00100
C3557       C  0.70550732  0.47734644  0.17935762    -0.11800
C3558       C  0.70228573  0.47355639  0.15797292     0.02100
H3559       H  0.78312178  0.99454373  0.14451951     0.15100
H3560       H  0.68198775  0.47023590  0.18839952     0.15100
C3561       C  0.66755097  0.46039150  0.14908525     0.36700
C3562       C  0.79709445  0.00268663  0.18349885     0.36600
N3563       N  0.63963432  0.44975178  0.14205469    -0.43600
N3564       N  0.82434839  0.01000826  0.19047034    -0.43600
C3565       C  0.74766072  0.49216254  0.35593374     0.00000
C3566       C  0.77342251  0.52212026  0.34527052    -0.11900
C3567       C  0.77340303  0.52341162  0.32382601     0.02200
C3568       C  0.74720322  0.49425056  0.31259183    -0.00100
C3569       C  0.71460807  0.97045192  0.32124912    -0.11800
C3570       C  0.71488427  0.97004931  0.34267887     0.02100
H3571       H  0.79370446  0.54469166  0.35369988     0.15100
H3572       H  0.69031714  0.95239642  0.31324690     0.15100
C3573       C  0.68235812  0.94612737  0.35324943     0.36700
C3574       C  0.79951178  0.55567221  0.31384567     0.36600
N3575       N  0.65632421  0.92699876  0.36173160    -0.43600
N3576       N  0.82029728  0.58161304  0.30587124    -0.43600
C3577       C  0.51705639  0.76431516  0.18897479     0.00000
C3578       C  0.98220847  0.75229077  0.17977220    -0.11900
C3579       C  0.97898038  0.74839815  0.15850128     0.02200
C3580       C  0.51240585  0.75558048  0.14569276    -0.00100
C3581       C  0.54553096  0.77328772  0.15559551    -0.11800
C3582       C  0.54817329  0.77742377  0.17692893     0.02100
H3583       H  0.95911344  0.74731674  0.18865155     0.15100
H3584       H  0.56971710  0.78416686  0.14664333     0.15100
C3585       C  0.58327827  0.79487907  0.18581491     0.36700
C3586       C  0.94482393  0.73823220  0.14961179     0.36600
N3587       N  0.61145388  0.80865303  0.19286167    -0.43600
N3588       N  0.91737464  0.73009518  0.14261724    -0.43600
C3589       C  0.51877640  0.77783153  0.31215701     0.00000
C3590       C  0.99288574  0.74883776  0.32299773    -0.11900
C3591       C  0.99157085  0.74798407  0.34437250     0.02200
C3592       C  0.51630861  0.77500218  0.35547296    -0.00100
C3593       C  0.54352393  0.80462272  0.34526425    -0.11800
C3594       C  0.54517760  0.80612612  0.32382008     0.02100
H3595       H  0.97462576  0.72526249  0.31443018     0.15100
H3596       H  0.56377411  0.82663273  0.35405817     0.15100
C3597       C  0.57366012  0.83743750  0.31428781     0.36700
C3598       C  0.96464932  0.71564491  0.35390590     0.36600
N3599       N  0.59654281  0.86255078  0.30671075    -0.43600
N3600       N  0.94298305  0.68968040  0.36144409    -0.43600
C3601       C  0.01643804  0.92985231  0.24550927     0.00000
C3602       C  0.98470031  0.89828589  0.24967817    -0.11900
C3603       C  0.98333947  0.86547818  0.25008400     0.02200
C3604       C  0.51775263  0.86623612  0.24779605    -0.00100
C3605       C  0.55018693  0.89800946  0.25025929    -0.11800
C3606       C  0.55185717  0.93096841  0.25106781     0.02100
H3607       H  0.96075095  0.89921590  0.25302825     0.15100
H3608       H  0.57461364  0.89722079  0.25175091     0.15100
C3609       C  0.58648742  0.96224299  0.25325492     0.36700
C3610       C  0.94954291  0.83438236  0.25458250     0.36600
N3611       N  0.61434927  0.98716091  0.25490241    -0.43600
N3612       N  0.92233730  0.80957091  0.25809960    -0.43600
C3613       C  0.51821054  0.68151331  0.25412030     0.00000
C3614       C  0.98917506  0.65123261  0.26344884    -0.11900
C3615       C  0.98661844  0.61781759  0.26343670     0.02200
C3616       C  0.01347866  0.61352477  0.25408325    -0.00100
C3617       C  0.54462836  0.64450796  0.24836069    -0.11800
C3618       C  0.54743088  0.67796959  0.24805088     0.02100
H3619       H  0.96838755  0.65423276  0.27067747     0.15100
H3620       H  0.56704729  0.64212202  0.24324489     0.15100
C3621       C  0.58007251  0.70761856  0.24052889     0.36700
C3622       C  0.95667559  0.58884044  0.27363849     0.36600
N3623       N  0.60624168  0.73122370  0.23442086    -0.43600
N3624       N  0.93265230  0.56575132  0.28187592    -0.43600
C3625       C  0.51532296  0.00890236  0.14538376     0.00000
C3626       C  0.53796699  0.53722542  0.15608926    -0.11900
C3627       C  0.53934696  0.54259968  0.17733949     0.02200
C3628       C  0.52140367  0.01975706  0.18854947    -0.00100
C3629       C  0.98736281  0.99426349  0.17741142    -0.11800
C3630       C  0.98490059  0.98865025  0.15627041     0.02100
H3631       H  0.56062948  0.55510354  0.14681290     0.15100
H3632       H  0.96452458  0.97722751  0.18682525     0.15100
C3633       C  0.95196152  0.95993957  0.14831464     0.36700
C3634       C  0.57099524  0.57208721  0.18593614     0.36600
N3635       N  0.92551794  0.93689774  0.14205398    -0.43600
N3636       N  0.59635844  0.59574188  0.19281206    -0.43600
C3637       C  0.50854172  0.50568906  0.35578455     0.00000
C3638       C  0.98038534  0.98200713  0.34097753    -0.11900
C3639       C  0.98179840  0.98444798  0.31957473     0.02200
C3640       C  0.50906382  0.51157818  0.31268047    -0.00100
C3641       C  0.53749443  0.53709736  0.32440263    -0.11800
C3642       C  0.53753648  0.53435728  0.34577891     0.02100
H3643       H  0.95846782  0.95900593  0.34817370     0.15100
H3644       H  0.55967441  0.55936298  0.31687009     0.15100
C3645       C  0.56833833  0.56045957  0.35690342     0.36700
C3646       C  0.95403569  0.95541935  0.30805111     0.36600
N3647       N  0.59316499  0.58124315  0.36576080    -0.43600
N3648       N  0.93174176  0.93215856  0.29885670    -0.43600
loop_ 
_geom_bond_atom_site_label_1 
_geom_bond_atom_site_label_2 
_geom_bond_distance 
_geom_bond_site_symmetry_2 
_ccdc_geom_bond_type 
O1          V921   1.884       .  S
O1         C1835   1.260       .  A
O2            V9   1.894       .  S
O2         C1836   1.263       .  A
O3            V9   1.910       .  S
O3           C13   1.268       .  A
O4            V9   1.910       .  S
O4           C14   1.267       .  A
O5           V10   1.893       .  S
O5         C2750   1.264       .  A
O6           V10   1.889       .  S
O6         C2749   1.262       .  A
O7          V922   1.894       .  S
O7           C12   1.264       .  A
O8           V10   1.899       .  S
O8           C11   1.265       .  A
V9          O913   1.891   1_545  S
V9         V2746   2.085   1_455  T
V10         O919   1.900       .  S
V10        V2745   2.086       .  T
C11        O1825   1.261       .  A
C11         C865   1.476       .  S
C12        O1826   1.263       .  A
C12         C880   1.482       .  S
C13        O2742   1.261   1_455  A
C13         C904   1.483       .  S
C14        O2741   1.263   1_455  A
C14        C1804   1.486       .  S
O15          V23   1.892       .  S
O15          C25   1.265       .  A
O16          V23   1.897       .  S
O16          C26   1.264       .  A
O17          V23   1.893       .  S
O17          C27   1.263       .  A
O18          V23   1.897       .  S
O18          C28   1.263       .  A
O19          V24   1.900       .  S
O19        C1852   1.266       .  A
O20          V24   1.899       .  S
O20        C1851   1.266       .  A
O21          V24   1.887       .  S
O21        C1850   1.263       .  A
O22          V24   1.891       .  S
O22        C1849   1.261       .  A
V23        V1848   2.085   1_455  T
V24        V1847   2.085       .  T
C25        O1846   1.263   1_455  A
C25         C868   1.485       .  S
C26        O1845   1.263   1_455  A
C26         C877   1.478       .  S
C27        O1844   1.266   1_455  A
C27         C841   1.488       .  S
C28        O1843   1.265   1_455  A
C28         C853   1.479       .  S
O29         V949   1.889       .  S
O29          C39   1.262       .  A
O30          V37   1.894       .  S
O30          C40   1.263       .  A
O31          V37   1.900       .  S
O31          C41   1.264   1_545  A
O32          V37   1.895       .  S
O32          C42   1.264   1_545  A
O33          V38   1.898       .  S
O33         C954   1.265       .  A
O34          V38   1.899       .  S
O34         C953   1.265       .  A
O35         V950   1.894   1_545  S
O35          C40   1.265       .  A
O36          V38   1.895       .  S
O36          C39   1.264       .  A
V37         O941   1.893   1_545  S
V37         V950   2.085   1_545  T
V38         O947   1.895       .  S
V38         V949   2.085       .  T
C39         C796   1.481       .  S
C40         C808   1.486       .  S
C41         O946   1.265       .  A
C41         C832   1.488       .  S
C42         O945   1.265       .  A
C42         C820   1.487       .  S
O43          V51   1.888       .  S
O43          C53   1.261       .  A
O44          V51   1.889       .  S
O44          C54   1.261       .  A
O45          V51   1.909       .  S
O45          C55   1.268       .  A
O46          V51   1.910       .  S
O46          C56   1.267       .  A
O47          V52   1.890       .  S
O47          C56   1.263       .  A
O48          V52   1.894       .  S
O48          C55   1.262       .  A
O49          V52   1.901       .  S
O49          C54   1.266       .  A
O50          V52   1.895       .  S
O50          C53   1.266       .  A
V51          V52   2.084       .  T
C53         C793   1.482       .  S
C54         C805   1.487       .  S
C55         C781   1.484       .  S
C56         C769   1.492       .  S
O57        V1889   1.894   1_455  S
O57         C979   1.265       .  A
O58          V65   1.896       .  S
O58         C980   1.265       .  A
O59          V65   1.897       .  S
O59        C2805   1.265       .  A
O60          V65   1.901       .  S
O60        C2806   1.264       .  A
O61          V66   1.888       .  S
O61          C70   1.264   1_445  A
O62          V66   1.894       .  S
O62          C69   1.262       .  A
O63        V1890   1.901       .  S
O63          C68   1.265       .  A
O64          V66   1.898       .  S
O64          C67   1.264   1_545  A
V65        O1881   1.894       .  S
V65        V2802   2.085       .  T
V66        O1887   1.899   1_455  S
V66        V2801   2.084   1_445  T
C67         O969   1.264       .  A
C67         C757   1.484       .  S
C68         O970   1.264   1_545  A
C68         C745   1.488       .  S
C69        O2795   1.267   1_445  A
C69         C901   1.484       .  S
C70        O2796   1.266       .  A
C70         C733   1.490       .  S
O71        V1903   1.892       .  S
O71          C81   1.263       .  A
O72          V79   1.893       .  S
O72          C82   1.265       .  A
O73          V79   1.893       .  S
O73        C1907   1.263       .  A
O74          V79   1.890       .  S
O74        C1908   1.264       .  A
O75          V80   1.906       .  S
O75          C84   1.266       .  A
O76          V80   1.908       .  S
O76          C83   1.267       .  A
O77        V1904   1.898       .  S
O77          C82   1.264       .  A
O78          V80   1.897       .  S
O78          C81   1.265       .  A
V79        O1895   1.894       .  S
V79        V1904   2.084       .  T
V80        O1901   1.897   1_455  S
V80        V1903   2.084       .  T
C81         C724   1.484       .  S
C82         C709   1.486       .  S
C83        O1897   1.262       .  A
C83         C856   1.486       .  S
C84        O1898   1.263       .  A
C84         C700   1.483       .  S
O85          V93   1.900       .  S
O85          C95   1.265   1_545  A
O86          V93   1.902       .  S
O86          C96   1.264   1_545  A
O87          V93   1.892       .  S
O87          C97   1.264   1_545  A
O88          V93   1.891       .  S
O88          C98   1.263   1_545  A
O89          V94   1.900       .  S
O89        C1010   1.265       .  A
O90          V94   1.896       .  S
O90        C1009   1.264       .  A
O91          V94   1.892       .  S
O91        C1008   1.263       .  A
O92          V94   1.893       .  S
O92        C1007   1.264       .  A
V93        V1006   2.084   1_545  T
V94        V1005   2.084       .  T
C95        O1004   1.264       .  A
C95         C685   1.491       .  S
C96        O1003   1.263       .  A
C96         C829   1.476       .  S
C97        O1002   1.264       .  A
C97         C760   1.485       .  S
C98        O1001   1.265       .  A
C98         C748   1.487       .  S
O99         V107   1.900       .  S
O99         C109   1.265       .  A
O100        V107   1.900       .  S
O100        C110   1.267       .  A
O101        V107   1.887       .  S
O101        C111   1.260       .  A
O102        V107   1.886       .  S
O102        C112   1.261       .  A
O103        V108   1.921       .  S
O103        C112   1.270       .  A
O104        V108   1.921       .  S
O104        C111   1.271       .  A
O105        V108   1.889       .  S
O105        C110   1.261       .  A
O106        V108   1.893       .  S
O106        C109   1.263       .  A
V107        V108   2.083       .  T
C109        C712   1.487       .  S
C110        C721   1.486       .  S
C111        C784   1.494       .  S
C112        C676   1.487       .  S
O113       V1033   1.889       .  S
O113        C123   1.263       .  A
O114        V121   1.891       .  S
O114        C124   1.262       .  A
O115        V121   1.904       .  S
O115       C1037   1.266       .  A
O116        V121   1.902       .  S
O116       C1038   1.266   1_545  A
O117        V122   1.892       .  S
O117       C1950   1.263       .  A
O118        V122   1.892       .  S
O118       C1949   1.263       .  A
O119       V1034   1.899   1_545  S
O119       C1948   1.265       .  A
O120        V122   1.896       .  S
O120       C1947   1.264       .  A
V121       O1025   1.892   1_545  S
V121       V2858   2.084   1_445  T
V122       O1031   1.896       .  S
V122       V2857   2.085       .  T
C123       O1944   1.264   1_455  A
C123        C637   1.482       .  S
C124       O1943   1.264   1_455  A
C124        C649   1.483       .  S
C125       O1027   1.266       .  A
C125       O1942   1.264   1_455  A
C125        C889   1.493       .  S
C126       O1028   1.265   1_655  A
C126       O1941   1.265       .  A
C126        C664   1.487       .  S
O127        V135   1.891       .  S
O127       C1961   1.262       .  A
O128        V135   1.888       .  S
O128       C1962   1.263       .  A
O129        V135   1.896       .  S
O129        C139   1.265       .  A
O130        V135   1.895       .  S
O130        C140   1.264       .  A
O131        V136   1.896       .  S
O131       C1964   1.265       .  A
O132        V136   1.897       .  S
O132       C1963   1.264       .  A
O133        V136   1.898       .  S
O133        C138   1.264       .  A
O134        V136   1.894       .  S
O134        C137   1.265       .  A
V135       V1960   2.086       .  T
V136       V1959   2.085   1_455  T
C137       O1951   1.262   1_455  A
C137        C652   1.481       .  S
C138       O1952   1.263   1_455  A
C138        C640   1.482       .  S
C139       O1956   1.264       .  A
C139        C625   1.484       .  S
C140       O1955   1.265       .  A
C140       C2668   1.483       .  S
O141        V149   1.902       .  S
O141       C1063   1.265       .  A
O142        V149   1.901       .  S
O142       C1064   1.265       .  A
O143       V1061   1.891   1_545  S
O143        C153   1.262       .  A
O144        V149   1.890       .  S
O144        C154   1.262       .  A
O145       V1062   1.894       .  S
O145        C154   1.264       .  A
O146        V150   1.895   1_545  S
O146        C153   1.265       .  A
O147        V150   1.887       .  S
O147        C152   1.263       .  A
O148        V150   1.885       .  S
O148        C151   1.262       .  A
V149       O1055   1.887       .  S
V149       V1062   2.086       .  T
V150       O1057   1.893       .  S
V150       V1061   2.085       .  T
C151       O1053   1.266       .  A
C151        C616   1.480       .  S
C152       O1054   1.267       .  A
C152        C817   1.486       .  S
C153        C601   1.480       .  S
C154        C589   1.475       .  S
O155        V163   1.901       .  S
O155        C165   1.265       .  A
O156        V163   1.902       .  S
O156        C166   1.265       .  A
O157        V163   1.896       .  S
O157        C167   1.265       .  A
O158        V163   1.897       .  S
O158        C168   1.266       .  A
O159        V164   1.887       .  S
O159        C168   1.261       .  A
O160        V164   1.889       .  S
O160        C167   1.262       .  A
O161        V164   1.894       .  S
O161        C166   1.264       .  A
O162        V164   1.894       .  S
O162        C165   1.263       .  A
V163        V164   2.084       .  T
C165        C577   1.477       .  S
C166        C772   1.489       .  S
C167        C592   1.477       .  S
C168        C604   1.480       .  S
O169       V2001   1.896   1_455  S
O169        C179   1.265       .  A
O170       V1089   1.889       .  S
O170        C180   1.263       .  A
O171        V177   1.903   1_565  S
O171       C2917   1.265       .  A
O172        V177   1.901       .  S
O172       C2918   1.265   1_545  A
O173        V178   1.899       .  S
O173        C182   1.266   1_455  A
O174        V178   1.902       .  S
O174        C181   1.265   1_455  A
O175       V2002   1.899       .  S
O175        C180   1.264       .  A
O176       V1090   1.891   1_545  S
O176        C179   1.263       .  A
V177       O1993   1.897       .  S
V177       O1082   1.893   1_545  S
V177       V2914   2.086   1_545  T
V178       O1999   1.897   1_455  S
V178       O1088   1.892       .  S
V178       V2913   2.084   1_455  T
C179        C553   1.483       .  S
C180        C544   1.485       .  S
C181       O2907   1.264       .  A
C181        C661   1.482       .  S
C182       O2908   1.264       .  A
C182       C1477   1.489       .  S
O183        V191   1.892       .  S
O183        C193   1.263       .  A
O184        V191   1.892       .  S
O184        C194   1.263       .  A
O185        V191   1.894       .  S
O185        C195   1.265       .  A
O186       V2015   1.894   1_455  S
O186        C196   1.265       .  A
O187        V192   1.891       .  S
O187        C196   1.262       .  A
O188       V2016   1.897       .  S
O188        C195   1.263       .  A
O189        V192   1.903       .  S
O189       C2018   1.266   1_455  A
O190        V192   1.902       .  S
O190       C2017   1.266       .  A
V191       O2010   1.895       .  S
V191       V2016   2.085       .  T
V192       O2012   1.894   1_455  S
V192       V2015   2.085   1_455  T
C193       O2014   1.266       .  A
C193        C628   1.482       .  S
C194       O2013   1.266       .  A
C194       C2353   1.486       .  S
C195        C508   1.483       .  S
C196        C517   1.483       .  S
O197        V205   1.893       .  S
O197        C207   1.264       .  A
O198       V1117   1.900   1_545  S
O198        C208   1.265       .  A
O199        V205   1.893       .  S
O199        C209   1.263       .  A
O200        V205   1.893       .  S
O200        C210   1.263       .  A
O201        V206   1.893       .  S
O201       C1122   1.265   1_545  A
O202        V206   1.895       .  S
O202       C1121   1.263   1_545  A
O203        V206   1.892       .  S
O203        C208   1.263       .  A
O204       V1118   1.892       .  S
O204        C207   1.262       .  A
V205       O1110   1.893       .  S
V205       V1118   2.084       .  T
V206       O1116   1.889   1_545  S
V206       V1117   2.085   1_545  T
C207        C520   1.483       .  S
C208        C505   1.484       .  S
C209       O1114   1.266       .  A
C209        C613   1.483       .  S
C210       O1113   1.266       .  A
C210        C496   1.488       .  S
O211        V219   1.893       .  S
O211        C221   1.263       .  A
O212        V219   1.893       .  S
O212        C222   1.263       .  A
O213        V219   1.895       .  S
O213        C223   1.263       .  A
O214        V219   1.895       .  S
O214        C224   1.264       .  A
O215        V220   1.900       .  S
O215        C224   1.265       .  A
O216        V220   1.898       .  S
O216        C223   1.265       .  A
O217        V220   1.894       .  S
O217        C222   1.265       .  A
O218        V220   1.895       .  S
O218        C221   1.264       .  A
V219        V220   2.084       .  T
C221        C541   1.486       .  S
C222        C556   1.484       .  S
C223        C580   1.484       .  S
C224        C481   1.489       .  S
O225        V233   1.888       .  S
O225        C235   1.262   1_445  A
O226        V233   1.892       .  S
O226        C236   1.263   1_445  A
O227        V233   1.897       .  S
O227        C237   1.265   1_545  A
O228       V2057   1.893       .  S
O228        C238   1.263   1_545  A
O229        V234   1.891       .  S
O229       C1150   1.264       .  A
O230       V2058   1.890   1_455  S
O230       C1149   1.262       .  A
O231        V234   1.905       .  S
O231       C2972   1.267       .  A
O232        V234   1.908       .  S
O232       C2971   1.267       .  A
V233       O2052   1.895   1_455  S
V233       V2970   2.083   1_445  T
V234       O2054   1.890       .  S
V234       V2969   2.083       .  T
C235       O2968   1.267       .  A
C235        C736   1.491       .  S
C236       O2967   1.266       .  A
C236        C469   1.484       .  S
C237       O1142   1.263       .  A
C237        C460   1.486       .  S
C238       O1141   1.264       .  A
C238        C448   1.483       .  S
O239        V247   1.895       .  S
O239        C249   1.263       .  A
O240       V2071   1.896   1_455  S
O240        C250   1.265       .  A
O241        V247   1.893       .  S
O241       C2075   1.263       .  A
O242        V247   1.892       .  S
O242       C2076   1.263       .  A
O243        V248   1.901       .  S
O243        C252   1.265       .  A
O244        V248   1.901       .  S
O244        C251   1.265       .  A
O245        V248   1.897       .  S
O245        C250   1.264       .  A
O246       V2072   1.895       .  S
O246        C249   1.265       .  A
V247       O2064   1.893       .  S
V247       V2072   2.085       .  T
V248       O2070   1.892   1_455  S
V248       V2071   2.085   1_455  T
C249        C412   1.482       .  S
C250        C421   1.485       .  S
C251       O2065   1.263   1_455  A
C251        C433   1.477       .  S
C252       O2066   1.263   1_455  A
C252        C697   1.483       .  S
O253        V261   1.890       .  S
O253        C263   1.264   1_545  A
O254        V261   1.891       .  S
O254        C264   1.262   1_545  A
O255        V261   1.896       .  S
O255        C265   1.265   1_545  A
O256        V261   1.896       .  S
O256        C266   1.264   1_545  A
O257        V262   1.900       .  S
O257       C1178   1.266       .  A
O258        V262   1.897       .  S
O258       C1177   1.264       .  A
O259        V262   1.901       .  S
O259       C1176   1.265       .  A
O260        V262   1.900       .  S
O260       C1175   1.264       .  A
V261       V1174   2.084   1_545  T
V262       V1173   2.084       .  T
C263       O1172   1.266       .  A
C263        C688   1.489       .  S
C264       O1171   1.266       .  A
C264       C1312   1.476       .  S
C265       O1170   1.263       .  A
C265        C445   1.484       .  S
C266       O1169   1.265       .  A
C266        C457   1.487       .  S
O267        V275   1.899       .  S
O267        C277   1.265       .  A
O268        V275   1.896       .  S
O268        C278   1.264       .  A
O269        V275   1.902       .  S
O269        C279   1.265       .  A
O270        V275   1.901       .  S
O270        C280   1.266       .  A
O271        V276   1.904       .  S
O271        C280   1.265       .  A
O272        V276   1.899       .  S
O272        C279   1.265       .  A
O273        V276   1.893       .  S
O273        C278   1.263       .  A
O274        V276   1.896       .  S
O274        C277   1.264       .  A
V275        V276   2.085       .  T
C277        C424   1.486       .  S
C278        C409   1.482       .  S
C279        C385   1.489       .  S
C280        C673   1.486       .  S
O281       V2113   1.893       .  S
O281        C291   1.263       .  A
O282       V1201   1.892   1_545  S
O282        C292   1.263       .  A
O283        V289   1.891       .  S
O283       C1205   1.262   1_455  A
O284        V289   1.892       .  S
O284       C1206   1.263   1_455  A
O285        V290   1.902       .  S
O285       C2118   1.266   1_545  A
O286        V290   1.906       .  S
O286       C2117   1.266   1_545  A
O287       V2114   1.895   1_455  S
O287        C292   1.265       .  A
O288       V1202   1.889       .  S
O288        C291   1.263       .  A
V289       O2105   1.894   1_455  S
V289       O1194   1.894       .  S
V289       V3026   2.084   1_455  T
V290       O2111   1.891       .  S
V290       O1200   1.887   1_545  S
V290       V3025   2.085   1_545  T
C291        C364   1.476       .  S
C292        C373   1.483       .  S
C293       O1195   1.264   1_655  A
C293       O2110   1.265   1_565  A
C293        C568   1.483       .  S
C294       O1196   1.264   1_655  A
C294       O2109   1.265   1_565  A
C294        C472   1.483       .  S
O295        V303   1.891       .  S
O295        C305   1.262       .  A
O296       V2127   1.892   1_455  S
O296        C306   1.262       .  A
O297        V303   1.896       .  S
O297       C2131   1.264       .  A
O298        V303   1.894       .  S
O298       C2132   1.264       .  A
O299        V304   1.900       .  S
O299        C308   1.264       .  A
O300        V304   1.898       .  S
O300        C307   1.264       .  A
O301        V304   1.895       .  S
O301        C306   1.265       .  A
O302       V2128   1.901       .  S
O302        C305   1.265       .  A
V303       O2120   1.888       .  S
V303       V2128   2.086       .  T
V304       O2126   1.898   1_455  S
V304       V2127   2.085   1_455  T
C305        C337   1.476       .  S
C306        C349   1.480       .  S
C307       O2121   1.265   1_455  A
C307        C436   1.484       .  S
C308       O2122   1.265   1_455  A
C308        C532   1.486       .  S
O309       V1229   1.902       .  S
O309        C319   1.266       .  A
O310        V317   1.897       .  S
O310        C320   1.264       .  A
O311        V317   1.894       .  S
O311       C1233   1.263   1_545  A
O312        V317   1.891       .  S
O312       C1234   1.263   1_545  A
O313        V318   1.906       .  S
O313        C322   1.268       .  A
O314        V318   1.906       .  S
O314        C321   1.267       .  A
O315       V1230   1.897   1_545  S
O315        C320   1.264       .  A
O316        V318   1.887       .  S
O316        C319   1.261       .  A
V317       O1221   1.896   1_545  S
V317       V1230   2.085   1_545  T
V318       O1227   1.890       .  S
V318       V1229   2.084       .  T
C319        C352   1.482       .  S
C320        C340   1.476       .  S
C321       O1223   1.262       .  A
C321        C397   1.487       .  S
C322       O1224   1.262       .  A
C322        C493   1.490       .  S
O323        V331   1.903       .  S
O323        C333   1.265       .  A
O324        V331   1.905       .  S
O324        C334   1.266       .  A
O325        V331   1.894       .  S
O325        C335   1.264       .  A
O326        V331   1.893       .  S
O326        C336   1.264       .  A
O327        V332   1.892       .  S
O327        C336   1.263       .  A
O328        V332   1.889       .  S
O328        C335   1.262       .  A
O329        V332   1.895       .  S
O329        C334   1.264       .  A
O330        V332   1.893       .  S
O330        C333   1.264       .  A
V331        V332   2.084       .  T
C333        C484   1.489       .  S
C334        C388   1.483       .  S
C335        C361   1.479       .  S
C336        C376   1.482       .  S
C337        C338   1.403       .  A
C337        C342   1.414       .  A
C338        C339   1.400       .  A
C338        H343   1.085       .  S
C339        C340   1.412       .  A
C339        C346   1.445       .  S
C340        C341   1.403       .  A
C341        C342   1.399       .  A
C341        H344   1.085       .  S
C342        C345   1.445       .  S
C345        N347   1.157       .  T
C346        N348   1.157       .  T
C349        C350   1.403       .  A
C349        C354   1.415       .  A
C350        C351   1.396       .  A
C350        H355   1.085       .  S
C351        C352   1.416       .  A
C351        C358   1.445       .  S
C352        C353   1.405       .  A
C353        C354   1.399       .  A
C353        H356   1.085       .  S
C354        C357   1.445       .  S
C357        N359   1.157       .  T
C358        N360   1.157       .  T
C361        C362   1.405       .  A
C361        C366   1.415       .  A
C362        C363   1.398       .  A
C362        H367   1.085       .  S
C363        C364   1.413       .  A
C363        C370   1.445       .  S
C364        C365   1.403       .  A
C365        C366   1.395       .  A
C365        H368   1.085       .  S
C366        C369   1.445       .  S
C369        N371   1.157       .  T
C370        N372   1.157       .  T
C373        C374   1.405       .  A
C373        C378   1.416       .  A
C374        C375   1.397       .  A
C374        H379   1.085       .  S
C375        C376   1.415       .  A
C375        C382   1.445       .  S
C376        C377   1.404       .  A
C377        C378   1.397       .  A
C377        H380   1.086       .  S
C378        C381   1.445       .  S
C381        N383   1.157       .  T
C382        N384   1.158       .  T
C385        C386   1.408       .  A
C385        C390   1.415       .  A
C386        C387   1.404       .  A
C386        H391   1.084       .  S
C387        C388   1.412       .  A
C387        C394   1.444       .  S
C388        C389   1.403       .  A
C389        C390   1.399       .  A
C389        H392   1.084       .  S
C390        C393   1.443       .  S
C393        N395   1.157       .  T
C394        N396   1.157       .  T
C397        C402   1.418       .  A
C397       C1310   1.407       .  A
C398        C399   1.399       .  A
C398       C1309   1.405       .  A
C398        H403   1.084       .  S
C399       C1312   1.410       .  A
C399        C406   1.443       .  S
C400       C1176   1.479       .  S
C400        C401   1.401       .  A
C400       C1311   1.411       .  A
C401        C402   1.399       .  A
C401        H404   1.085       .  S
C402        C405   1.445       .  S
C405        N407   1.157       .  T
C406        N408   1.157       .  T
C409        C410   1.405       .  A
C409        C414   1.414       .  A
C410        C411   1.400       .  A
C410        H415   1.085       .  S
C411        C412   1.415       .  A
C411        C418   1.445       .  S
C412        C413   1.404       .  A
C413        C414   1.397       .  A
C413        H416   1.085       .  S
C414        C417   1.445       .  S
C417        N419   1.157       .  T
C418        N420   1.158       .  T
C421        C422   1.405       .  A
C421        C426   1.416       .  A
C422        C423   1.398       .  A
C422        H427   1.085       .  S
C423        C424   1.415       .  A
C423        C430   1.444       .  S
C424        C425   1.406       .  A
C425        C426   1.401       .  A
C425        H428   1.085       .  S
C426        C429   1.445       .  S
C429        N431   1.158       .  T
C430        N432   1.157       .  T
C433        C438   1.410   1_455  A
C433       C2258   1.404       .  A
C434        C435   1.399       .  A
C434       C2257   1.406       .  A
C434        H439   1.084       .  S
C435       C2260   1.412       .  A
C435        C442   1.445       .  S
C436        C437   1.407   1_455  A
C436       C2259   1.416       .  A
C437        C438   1.400       .  A
C437        H440   1.084       .  S
C438        C441   1.444       .  S
C441        N443   1.157       .  T
C442        N444   1.157       .  T
C445        C446   1.404   1_565  A
C445       C1362   1.416       .  A
C446        C447   1.397       .  A
C446        H451   1.084       .  S
C447        C448   1.415   1_545  A
C447        C454   1.445       .  S
C448       C1361   1.405       .  A
C449        C450   1.399       .  A
C449       C1360   1.407       .  A
C449        H452   1.084       .  S
C450       C1357   1.415       .  A
C450        C453   1.445       .  S
C453        N455   1.158       .  T
C454        N456   1.157       .  T
C457        C462   1.416   1_565  A
C457       C1370   1.406       .  A
C458        C459   1.399       .  A
C458       C1369   1.405       .  A
C458        H463   1.085       .  S
C459       C1372   1.417       .  A
C459        C466   1.445       .  S
C460        C461   1.405   1_565  A
C460       C1371   1.416       .  A
C461        C462   1.399       .  A
C461        H464   1.085       .  S
C462        C465   1.445       .  S
C465        N467   1.157       .  T
C466        N468   1.158       .  T
C469       C2294   1.406   1_565  A
C469       C1386   1.413       .  A
C470        C471   1.399       .  A
C470       C2293   1.407   1_545  A
C470        H475   1.084       .  S
C471       C2296   1.411   1_545  A
C471        C478   1.445       .  S
C472       C2295   1.413   1_565  A
C472       C1385   1.406       .  A
C473        C474   1.400       .  A
C473       C1384   1.408   1_455  A
C473        H476   1.084       .  S
C474       C1381   1.410   1_455  A
C474        C477   1.444       .  S
C477        N479   1.157       .  T
C478        N480   1.157       .  T
C481        C482   1.407       .  A
C481        C486   1.416       .  A
C482        C483   1.402       .  A
C482        H487   1.085       .  S
C483        C484   1.416       .  A
C483        C490   1.444       .  S
C484        C485   1.406       .  A
C485        C486   1.398       .  A
C485        H488   1.085       .  S
C486        C489   1.445       .  S
C489        N491   1.157       .  T
C490        N492   1.158       .  T
C493        C494   1.405       .  A
C493       C1410   1.419       .  A
C494        C495   1.400       .  A
C494        H499   1.084       .  S
C495        C496   1.417       .  A
C495        C502   1.445       .  S
C496       C1409   1.404       .  A
C497        C498   1.396       .  A
C497       C1408   1.404   1_545  A
C497        H500   1.085       .  S
C498       C1405   1.416   1_545  A
C498        C501   1.445       .  S
C501        N503   1.157       .  T
C502        N504   1.157       .  T
C505        C506   1.406       .  A
C505        C510   1.415       .  A
C506        C507   1.401       .  A
C506        H511   1.084       .  S
C507        C508   1.415       .  A
C507        C514   1.445       .  S
C508        C509   1.404       .  A
C509        C510   1.397       .  A
C509        H512   1.084       .  S
C510        C513   1.445       .  S
C513        N515   1.157       .  T
C514        N516   1.158       .  T
C517        C518   1.405       .  A
C517        C522   1.416       .  A
C518        C519   1.397       .  A
C518        H523   1.085       .  S
C519        C520   1.416       .  A
C519        C526   1.444       .  S
C520        C521   1.405       .  A
C521        C522   1.397       .  A
C521        H524   1.085       .  S
C522        C525   1.445       .  S
C525        N527   1.157       .  T
C526        N528   1.157       .  T
C529       C2018   1.487       .  S
C529        C534   1.416       .  A
C529       C2354   1.406   1_655  A
C530        C531   1.401       .  A
C530       C2353   1.406       .  A
C530        H535   1.084       .  S
C531       C2356   1.415       .  A
C531        C538   1.444       .  S
C532        C533   1.405   1_455  A
C532       C2355   1.416       .  A
C533        C534   1.398       .  A
C533        H536   1.085       .  S
C534        C537   1.445       .  S
C537        N539   1.157       .  T
C538        N540   1.157       .  T
C541        C542   1.407       .  A
C541        C546   1.415       .  A
C542        C543   1.400       .  A
C542        H547   1.084       .  S
C543        C544   1.415       .  A
C543        C550   1.445       .  S
C544        C545   1.406       .  A
C545        C546   1.397       .  A
C545        H548   1.085       .  S
C546        C549   1.445       .  S
C549        N551   1.158       .  T
C550        N552   1.157       .  T
C553        C554   1.405       .  A
C553        C558   1.415       .  A
C554        C555   1.398       .  A
C554        H559   1.085       .  S
C555        C556   1.416       .  A
C555        C562   1.445       .  S
C556        C557   1.405       .  A
C557        C558   1.397       .  A
C557        H560   1.085       .  S
C558        C561   1.445       .  S
C561        N563   1.157       .  T
C562        N564   1.157       .  T
C565       C1094   1.483       .  S
C565       C1478   1.405   1_655  A
C565       C2394   1.414       .  A
C566        C567   1.398   1_655  A
C566       C1477   1.405       .  A
C566        H571   1.085   1_655  S
C567       C1480   1.417   1_455  A
C567        C574   1.445       .  S
C568       C1479   1.414   1_655  A
C568       C2393   1.405       .  A
C569        C570   1.404       .  A
C569       C2392   1.406       .  A
C569        H572   1.085       .  S
C570       C2389   1.415       .  A
C570        C573   1.444       .  S
C573        N575   1.157       .  T
C574        N576   1.157       .  T
C577        C578   1.403       .  A
C577        C582   1.411       .  A
C578        C579   1.401   1_554  A
C578        H583   1.084       .  S
C579        C580   1.417       .  A
C579        C586   1.445       .  S
C580        C581   1.405       .  A
C581        C582   1.398   1_556  A
C581        H584   1.084       .  S
C582        C585   1.445       .  S
C585        N587   1.157       .  T
C586        N588   1.158       .  T
C589        C590   1.403       .  A
C589        C594   1.413       .  A
C590        C591   1.396       .  A
C590        H595   1.085       .  S
C591        C592   1.415       .  A
C591        C598   1.445       .  S
C592        C593   1.404       .  A
C593        C594   1.397       .  A
C593        H596   1.085       .  S
C594        C597   1.445       .  S
C597        N599   1.157       .  T
C598        N600   1.157       .  T
C601        C602   1.404       .  A
C601        C606   1.415       .  A
C602        C603   1.397       .  A
C602        H607   1.085       .  S
C603        C604   1.416       .  A
C603        C610   1.445       .  S
C604        C605   1.404       .  A
C605        C606   1.397       .  A
C605        H608   1.085       .  S
C606        C609   1.445       .  S
C609        N611   1.157       .  T
C610        N612   1.158       .  T
C613        C618   1.414       .  A
C613       C1526   1.406       .  A
C614        C615   1.402   1_556  A
C614       C1525   1.406       .  A
C614        H619   1.085       .  S
C615        C616   1.412       .  A
C615        C622   1.444       .  S
C616       C1529   1.406       .  A
C617        C618   1.398   1_554  A
C617       C1528   1.404       .  A
C617        H620   1.085       .  S
C618        C621   1.445       .  S
C621        N623   1.157       .  T
C622        N624   1.157       .  T
C625        C626   1.404       .  A
C625       C2454   1.416       .  A
C626        C627   1.398   1_554  A
C626        H631   1.084       .  S
C627        C628   1.413       .  A
C627        C634   1.445       .  S
C628       C2453   1.405       .  A
C629        C630   1.401   1_556  A
C629       C2452   1.405       .  A
C629        H632   1.084       .  S
C630       C2449   1.414       .  A
C630        C633   1.445       .  S
C633        N635   1.157       .  T
C634        N636   1.157       .  T
C637        C638   1.407       .  A
C637       C2466   1.414   1_455  A
C638        C639   1.398       .  A
C638        H643   1.085       .  S
C639        C640   1.415       .  A
C639        C646   1.445       .  S
C640       C2465   1.406   1_455  A
C641        C642   1.396       .  A
C641       C2464   1.404       .  A
C641        H644   1.085       .  S
C642       C2461   1.413       .  A
C642        C645   1.445       .  S
C645        N647   1.157       .  T
C646        N648   1.157       .  T
C649        C654   1.416       .  A
C649       C2474   1.406   1_455  A
C650        C651   1.399       .  A
C650       C2473   1.406       .  A
C650        H655   1.085       .  S
C651       C2476   1.415       .  A
C651        C658   1.445       .  S
C652        C653   1.404       .  A
C652       C2475   1.415   1_455  A
C653        C654   1.396       .  A
C653        H656   1.085       .  S
C654        C657   1.445       .  S
C657        N659   1.157       .  T
C658        N660   1.158       .  T
C661       C1574   1.404   1_655  A
C661       C2490   1.412       .  A
C662        C663   1.400   1_556  A
C662       C1573   1.405   1_455  A
C662        H667   1.084       .  S
C663       C1576   1.413   1_455  A
C663        C670   1.444       .  S
C664       C1575   1.416   1_655  A
C664       C2489   1.406       .  A
C665        C666   1.399   1_554  A
C665       C2488   1.405       .  A
C665        H668   1.084       .  S
C666       C2485   1.413       .  A
C666        C669   1.444       .  S
C669        N671   1.157       .  T
C670        N672   1.157       .  T
C673        C674   1.406       .  A
C673        C678   1.413       .  A
C674        C675   1.406       .  A
C674        H679   1.085       .  S
C675        C676   1.413       .  A
C675        C682   1.441       .  S
C676        C677   1.406       .  A
C677        C678   1.399       .  A
C677        H680   1.085       .  S
C678        C681   1.445       .  S
C681        N683   1.157       .  T
C682        N684   1.156       .  T
C685        C690   1.415   1_565  A
C685       C1598   1.409       .  A
C686        C687   1.400       .  A
C686       C1597   1.407       .  A
C686        H691   1.085       .  S
C687       C1600   1.416       .  A
C687        C694   1.445       .  S
C688        C689   1.406   1_565  A
C688       C1599   1.415       .  A
C689        C690   1.397       .  A
C689        H692   1.085       .  S
C690        C693   1.444       .  S
C693        N695   1.157       .  T
C694        N696   1.157       .  T
C697        C702   1.415       .  A
C697       C2522   1.407       .  A
C698        C699   1.404       .  A
C698       C2521   1.407       .  A
C698        H703   1.085       .  S
C699       C2524   1.415       .  A
C699        C706   1.444       .  S
C700        C701   1.404       .  A
C700       C2523   1.414       .  A
C701        C702   1.395       .  A
C701        H704   1.085       .  S
C702        C705   1.445       .  S
C705        N707   1.157   1_455  T
C706        N708   1.157       .  T
C709        C710   1.406       .  A
C709        C714   1.416       .  A
C710        C711   1.398       .  A
C710        H715   1.085       .  S
C711        C712   1.415       .  A
C711        C718   1.444       .  S
C712        C713   1.407       .  A
C713        C714   1.400       .  A
C713        H716   1.085       .  S
C714        C717   1.445       .  S
C717        N719   1.158       .  T
C718        N720   1.157       .  T
C721        C722   1.405       .  A
C721        C726   1.418       .  A
C722        C723   1.398       .  A
C722        H727   1.084       .  S
C723        C724   1.415       .  A
C723        C730   1.444       .  S
C724        C725   1.404       .  A
C725        C726   1.398       .  A
C725        H728   1.084       .  S
C726        C729   1.444       .  S
C729        N731   1.157       .  T
C730        N732   1.157       .  T
C733        C734   1.405   1_665  A
C733       C3474   1.416       .  A
C734        C735   1.395       .  A
C734        H739   1.085       .  S
C735        C736   1.417   1_445  A
C735        C742   1.445       .  S
C736       C3473   1.408       .  A
C737        C738   1.405       .  A
C737       C3472   1.407       .  A
C737        H740   1.085       .  S
C738       C3469   1.417       .  A
C738        C741   1.444       .  S
C741        N743   1.157       .  T
C742        N744   1.157       .  T
C745        C750   1.415       .  A
C745       C1658   1.407   1_545  A
C746        C747   1.399       .  A
C746       C1657   1.404       .  A
C746        H751   1.085       .  S
C747       C1660   1.415       .  A
C747        C754   1.441       .  S
C748        C749   1.407   1_565  A
C748       C1659   1.414       .  A
C749        C750   1.399       .  A
C749        H752   1.085       .  S
C750        C753   1.445       .  S
C753        N755   1.158       .  T
C754        N756   1.156       .  T
C757        C762   1.414   1_565  A
C757       C1670   1.406       .  A
C758        C759   1.398       .  A
C758       C1669   1.405       .  A
C758        H763   1.085       .  S
C759       C1672   1.416       .  A
C759        C766   1.445       .  S
C760        C761   1.407   1_565  A
C760       C1671   1.415       .  A
C761        C762   1.398       .  A
C761        H764   1.085       .  S
C762        C765   1.445       .  S
C765        N767   1.157       .  T
C766        N768   1.157       .  T
C769        C770   1.407       .  A
C769        C774   1.416       .  A
C770        C771   1.398       .  A
C770        H775   1.085       .  S
C771        C772   1.415       .  A
C771        C778   1.445       .  S
C772        C773   1.407       .  A
C773        C774   1.404       .  A
C773        H776   1.085       .  S
C774        C777   1.444       .  S
C777        N779   1.157       .  T
C778        N780   1.158       .  T
C781        C782   1.399       .  A
C781        C786   1.416       .  A
C782        C783   1.400       .  A
C782        H787   1.085       .  S
C783        C784   1.422       .  A
C783        C790   1.445       .  S
C784        C785   1.406       .  A
C785        C786   1.406       .  A
C785        H788   1.084       .  S
C786        C789   1.445       .  S
C789        N791   1.157       .  T
C790        N792   1.157       .  T
C793        C794   1.404       .  A
C793        C798   1.417       .  A
C794        C795   1.396       .  A
C794        H799   1.084       .  S
C795        C796   1.415       .  A
C795        C802   1.445       .  S
C796        C797   1.404       .  A
C797        C798   1.398       .  A
C797        H800   1.084       .  S
C798        C801   1.445       .  S
C801        N803   1.157       .  T
C802        N804   1.157       .  T
C805        C806   1.406       .  A
C805        C810   1.417       .  A
C806        C807   1.400       .  A
C806        H811   1.085       .  S
C807        C808   1.417       .  A
C807        C814   1.445       .  S
C808        C809   1.404       .  A
C809        C810   1.397       .  A
C809        H812   1.085       .  S
C810        C813   1.445       .  S
C813        N815   1.158       .  T
C814        N816   1.158       .  T
C817        C822   1.414       .  A
C817       C1730   1.406   1_565  A
C818        C819   1.395       .  A
C818       C1729   1.405       .  A
C818        H823   1.085       .  S
C819       C1732   1.414       .  A
C819        C826   1.446       .  S
C820        C821   1.408       .  A
C820       C1731   1.414   1_565  A
C821        C822   1.404       .  A
C821        H824   1.085       .  S
C822        C825   1.444       .  S
C825        N827   1.157       .  T
C826        N828   1.157       .  T
C829        C830   1.402   1_565  A
C829       C1746   1.410       .  A
C830        C831   1.403       .  A
C830        H835   1.085       .  S
C831        C832   1.418   1_545  A
C831        C838   1.444       .  S
C832       C1745   1.407       .  A
C833        C834   1.398       .  A
C833       C1744   1.404       .  A
C833        H836   1.084       .  S
C834       C1741   1.413       .  A
C834        C837   1.445       .  S
C837        N839   1.157       .  T
C838        N840   1.157       .  T
C841        C846   1.417       .  A
C841       C2666   1.406   1_455  A
C842        C843   1.399       .  A
C842       C2665   1.405       .  A
C842        H847   1.084       .  S
C843       C2668   1.414       .  A
C843        C850   1.445       .  S
C844       C1964   1.487       .  S
C844        C845   1.405       .  A
C844       C2667   1.416   1_455  A
C845        C846   1.399       .  A
C845        H848   1.085       .  S
C846        C849   1.445       .  S
C849        N851   1.158       .  T
C850        N852   1.157       .  T
C853        C858   1.413       .  A
C853       C2678   1.400   1_455  A
C854        C855   1.399       .  A
C854       C2677   1.403       .  A
C854        H859   1.084       .  S
C855       C2680   1.415       .  A
C855        C862   1.445       .  S
C856        C857   1.406       .  A
C856       C2679   1.418   1_455  A
C857        C858   1.403       .  A
C857        H860   1.084       .  S
C858        C861   1.445       .  S
C861        N863   1.157       .  T
C862        N864   1.157       .  T
C865        C866   1.403       .  A
C865       C2694   1.415       .  A
C866        C867   1.399       .  A
C866        H871   1.086       .  S
C867       C2692   1.416       .  A
C867        C874   1.445       .  S
C868        C869   1.404       .  A
C868       C2691   1.417   1_455  A
C869        C870   1.395       .  A
C869        H872   1.086       .  S
C870       C2689   1.417       .  A
C870        C873   1.446       .  S
C873        N875   1.158       .  T
C874        N876   1.158       .  T
C877        C882   1.414       .  A
C877       C2702   1.404   1_455  A
C878        C879   1.395       .  A
C878       C2701   1.405       .  A
C878        H883   1.085       .  S
C879        C880   1.414       .  A
C879        C886   1.445       .  S
C880       C2705   1.407       .  A
C881        C882   1.399       .  A
C881       C2704   1.404       .  A
C881        H884   1.085       .  S
C882        C885   1.444       .  S
C885        N887   1.157       .  T
C886        N888   1.157       .  T
C889       C1802   1.408       .  A
C889       C2718   1.417   1_455  A
C890        C891   1.405       .  A
C890       C1801   1.408       .  A
C890        H895   1.085       .  S
C891       C1804   1.413       .  A
C891        C898   1.444       .  S
C892        C926   1.491       .  S
C892       C1803   1.415       .  A
C892       C2717   1.407   1_455  A
C893        C894   1.398       .  A
C893       C2716   1.405       .  A
C893        H896   1.085       .  S
C894       C2713   1.416       .  A
C894        C897   1.445       .  S
C897        N899   1.157       .  T
C898        N900   1.157       .  T
C901        C906   1.417       .  A
C901       C3638   1.403   1_445  A
C902        C903   1.397       .  A
C902       C3637   1.402       .  A
C902        H907   1.084       .  S
C903       C3640   1.414       .  A
C903        C910   1.445       .  S
C904        C905   1.403       .  A
C904       C3639   1.416   1_445  A
C905        C906   1.402       .  A
C905        H908   1.084       .  S
C906        C909   1.444       .  S
C909        N911   1.157       .  T
C910        N912   1.157       .  T
O913       C2747   1.262       .  A
O914        V921   1.889       .  S
O914       C2748   1.262       .  A
O915        V921   1.907       .  S
O915        C925   1.267       .  A
O916        V921   1.907       .  S
O916        C926   1.267       .  A
O917        V922   1.881       .  S
O917       C1838   1.262       .  A
O918        V922   1.885       .  S
O918       C1837   1.260       .  A
O919        C924   1.265       .  A
O920        V922   1.896   1_565  S
O920        C923   1.265       .  A
V921       V1834   2.084   1_455  T
V922       V1833   2.083       .  T
C923       O2737   1.262       .  A
C923       C1777   1.485       .  S
C924       O2738   1.262       .  A
C924       C1792   1.479       .  S
C925       O1830   1.261   1_455  A
C925       C1816   1.485       .  S
C926       O1829   1.263   1_455  A
O927        V935   1.898       .  S
O927        C937   1.265       .  A
O928        V935   1.901       .  S
O928        C938   1.265       .  A
O929        V935   1.898       .  S
O929        C939   1.264       .  A
O930        V935   1.902       .  S
O930        C940   1.264       .  A
O931        V936   1.895       .  S
O931       C2764   1.264       .  A
O932        V936   1.897       .  S
O932       C2763   1.265       .  A
O933        V936   1.889       .  S
O933       C2762   1.263       .  A
O934        V936   1.893       .  S
O934       C2761   1.263       .  A
V935       V2760   2.086   1_455  T
V936       V2759   2.085       .  T
C937       O2758   1.262   1_455  A
C937       C1780   1.484       .  S
C938       O2757   1.262   1_455  A
C938       C1789   1.478       .  S
C939       O2756   1.264   1_455  A
C939       C1753   1.483       .  S
C940       O2755   1.263   1_455  A
C940       C1765   1.474       .  S
O941        C951   1.263       .  A
O942        V949   1.891       .  S
O942        C952   1.262       .  A
O943        V949   1.891       .  S
O943        C953   1.262       .  A
O944        V949   1.888       .  S
O944        C954   1.262       .  A
O945        V950   1.901       .  S
O946        V950   1.897       .  S
O947        C952   1.265       .  A
O948        V950   1.893       .  S
O948        C951   1.264       .  A
C951       C1708   1.475       .  S
C952       C1720   1.482       .  S
C953       C1744   1.480       .  S
C954       C1732   1.481       .  S
O955        V963   1.888       .  S
O955        C965   1.262       .  A
O956        V963   1.889       .  S
O956        C966   1.262       .  A
O957        V963   1.906       .  S
O957        C967   1.266       .  A
O958        V963   1.906       .  S
O958        C968   1.266       .  A
O959        V964   1.893       .  S
O959        C968   1.264       .  A
O960        V964   1.894       .  S
O960        C967   1.263       .  A
O961        V964   1.899       .  S
O961        C966   1.266       .  A
O962        V964   1.896       .  S
O962        C965   1.264       .  A
V963        V964   2.085       .  T
C965       C1705   1.475       .  S
C966       C1717   1.482       .  S
C967       C1693   1.481       .  S
C968       C1681   1.490       .  S
O969       V2801   1.892   1_455  S
O970        V977   1.891       .  S
O971        V977   1.899       .  S
O971       C1893   1.266   1_565  A
O972        V977   1.906       .  S
O972       C1894   1.265       .  A
O973        V978   1.890       .  S
O973        C982   1.264   1_455  A
O974        V978   1.891       .  S
O974        C981   1.262       .  A
O975       V2802   1.896       .  S
O975        C980   1.264       .  A
O976        V978   1.896       .  S
O976        C979   1.263       .  A
V977       O2793   1.890       .  S
V977       V1890   2.084   1_565  T
V978       O2799   1.896   1_455  S
V978       V1889   2.085   1_455  T
C979       C1669   1.487       .  S
C980       C1657   1.483       .  S
C981       O1883   1.265   1_455  A
C981       C1813   1.474       .  S
C982       O1884   1.265       .  A
C982       C1645   1.482       .  S
O983       V2815   1.890       .  S
O983        C993   1.262       .  A
O984        V991   1.890       .  S
O984        C994   1.263       .  A
O985        V991   1.897       .  S
O985       C2819   1.264       .  A
O986        V991   1.896       .  S
O986       C2820   1.265       .  A
O987        V992   1.900       .  S
O987        C996   1.264       .  A
O988        V992   1.901       .  S
O988        C995   1.265       .  A
O989       V2816   1.905       .  S
O989        C994   1.266       .  A
O990        V992   1.906       .  S
O990        C993   1.267       .  A
V991       O2807   1.890       .  S
V991       V2816   2.085       .  T
V992       O2813   1.906   1_455  S
V992       V2815   2.083       .  T
C993       C1636   1.486       .  S
C994       C1621   1.490       .  S
C995       O2809   1.263       .  A
C995       C1768   1.485       .  S
C996       O2810   1.265       .  A
C996       C1612   1.490       .  S
O997       V1005   1.898       .  S
O997       C1007   1.265       .  A
O998       V1005   1.898       .  S
O998       C1008   1.264       .  A
O999       V1005   1.897       .  S
O999       C1009   1.265       .  A
O1000      V1005   1.896       .  S
O1000      C1010   1.264       .  A
O1001      V1006   1.901       .  S
O1002      V1006   1.898       .  S
O1003      V1006   1.894       .  S
O1004      V1006   1.898       .  S
C1007      C1597   1.486       .  S
C1008      C1741   1.477       .  S
C1009      C1672   1.488       .  S
C1010      C1660   1.486       .  S
O1011      V1019   1.904       .  S
O1011      C1021   1.266       .  A
O1012      V1019   1.903       .  S
O1012      C1022   1.266       .  A
O1013      V1019   1.890       .  S
O1013      C1023   1.261       .  A
O1014      V1019   1.886       .  S
O1014      C1024   1.263       .  A
O1015      V1020   1.911       .  S
O1015      C1024   1.267       .  A
O1016      V1020   1.910       .  S
O1016      C1023   1.268       .  A
O1017      V1020   1.891       .  S
O1017      C1022   1.262       .  A
O1018      V1020   1.892       .  S
O1018      C1021   1.263       .  A
V1019      V1020   2.083       .  T
C1021      C1624   1.490       .  S
C1022      C1633   1.483       .  S
C1023      C1696   1.488       .  S
C1024      C1588   1.492       .  S
O1025      C1035   1.263       .  A
O1026      V1033   1.887       .  S
O1026      C1036   1.262       .  A
O1027      V1033   1.903       .  S
O1028      V1033   1.902       .  S
O1029      V1034   1.898       .  S
O1029      C2862   1.264       .  A
O1030      V1034   1.891       .  S
O1030      C2861   1.263   1_565  A
O1031      C2860   1.265       .  A
O1032      V1034   1.897       .  S
O1032      C2859   1.265       .  A
V1033      V1946   2.084   1_455  T
V1034      V1945   2.084   1_565  T
C1035      O2856   1.264   1_455  A
C1035      C1549   1.482       .  S
C1036      O2855   1.264   1_455  A
C1036      C1561   1.475       .  S
C1037      O2854   1.263   1_445  A
C1037      C1801   1.487       .  S
C1038      O2853   1.263   1_455  A
C1038      C1576   1.484   1_455  S
O1039      V1047   1.888       .  S
O1039      C2873   1.262       .  A
O1040      V1047   1.887       .  S
O1040      C2874   1.262       .  A
O1041      V1047   1.898       .  S
O1041      C1051   1.265       .  A
O1042      V1047   1.898       .  S
O1042      C1052   1.264       .  A
O1043      V1048   1.894       .  S
O1043      C2876   1.264       .  A
O1044      V1048   1.895       .  S
O1044      C2875   1.263       .  A
O1045      V1048   1.899       .  S
O1045      C1050   1.264       .  A
O1046      V1048   1.894       .  S
O1046      C1049   1.264       .  A
V1047      V2872   2.085       .  T
V1048      V2871   2.086   1_455  T
C1049      O2863   1.261   1_455  A
C1049      C1564   1.475       .  S
C1050      O2864   1.263   1_455  A
C1050      C1552   1.482       .  S
C1051      O2868   1.264       .  A
C1051      C1537   1.481       .  S
C1052      O2867   1.265       .  A
C1052      C3580   1.490       .  S
O1053      V1061   1.907       .  S
O1054      V1061   1.909       .  S
O1055      C1065   1.261       .  A
O1056      V1061   1.893       .  S
O1056      C1066   1.263       .  A
O1057      C1066   1.264       .  A
O1058      V1062   1.894       .  S
O1058      C1065   1.265       .  A
O1059      V1062   1.889       .  S
O1059      C1064   1.263       .  A
O1060      V1062   1.889       .  S
O1060      C1063   1.262       .  A
C1063      C1528   1.479       .  S
C1064      C1729   1.482       .  S
C1065      C1513   1.481       .  S
C1066      C1501   1.481       .  S
O1067      V1075   1.900       .  S
O1067      C1077   1.265       .  A
O1068      V1075   1.902       .  S
O1068      C1078   1.266       .  A
O1069      V1075   1.891       .  S
O1069      C1079   1.263       .  A
O1070      V1075   1.889       .  S
O1070      C1080   1.264       .  A
O1071      V1076   1.892       .  S
O1071      C1080   1.262       .  A
O1072      V1076   1.895       .  S
O1072      C1079   1.264       .  A
O1073      V1076   1.896       .  S
O1073      C1078   1.264       .  A
O1074      V1076   1.896       .  S
O1074      C1077   1.264       .  A
V1075      V1076   2.084       .  T
C1077      C1489   1.481       .  S
C1078      C1684   1.491       .  S
C1079      C1504   1.482       .  S
C1080      C1516   1.481       .  S
O1081      V2913   1.893   1_455  S
O1081      C1091   1.264       .  A
O1082      C1092   1.264       .  A
O1083      V1089   1.901       .  S
O1083      C2005   1.266       .  A
O1084      V1089   1.904       .  S
O1084      C2006   1.265       .  A
O1085      V1090   1.901       .  S
O1085      C1094   1.265   1_455  A
O1086      V1090   1.900       .  S
O1086      C1093   1.265   1_455  A
O1087      V2914   1.896       .  S
O1087      C1092   1.263       .  A
O1088      C1091   1.263       .  A
V1089      O2905   1.889       .  S
V1089      V2002   2.085       .  T
V1090      O2911   1.896   1_455  S
V1090      V2001   2.086   1_465  T
C1091      C1465   1.482       .  S
C1092      C1456   1.479       .  S
C1093      O1995   1.264   1_565  A
C1093      C1573   1.483       .  S
C1094      O1996   1.264   1_565  A
O1095      V1103   1.895       .  S
O1095      C1105   1.263       .  A
O1096      V1103   1.893       .  S
O1096      C1106   1.263       .  A
O1097      V1103   1.897       .  S
O1097      C1107   1.265       .  A
O1098      V2927   1.895   1_455  S
O1098      C1108   1.265       .  A
O1099      V1104   1.892       .  S
O1099      C1108   1.263       .  A
O1100      V2928   1.891       .  S
O1100      C1107   1.262       .  A
O1101      V1104   1.901       .  S
O1101      C2930   1.266   1_455  A
O1102      V1104   1.904       .  S
O1102      C2929   1.266   1_455  A
V1103      O2922   1.895       .  S
V1103      V2928   2.085       .  T
V1104      O2924   1.891   1_455  S
V1104      V2927   2.085   1_455  T
C1105      O2926   1.266       .  A
C1105      C1540   1.484       .  S
C1106      O2925   1.267       .  A
C1106      C3265   1.489       .  S
C1107      C1420   1.486       .  S
C1108      C1429   1.480       .  S
O1109      V1117   1.897       .  S
O1109      C1119   1.265       .  A
O1110      C1120   1.265       .  A
O1111      V1117   1.896       .  S
O1111      C1121   1.264       .  A
O1112      V1117   1.898       .  S
O1112      C1122   1.263       .  A
O1113      V1118   1.902       .  S
O1114      V1118   1.902       .  S
O1115      V1118   1.895       .  S
O1115      C1120   1.263       .  A
O1116      C1119   1.262       .  A
C1119      C1432   1.478       .  S
C1120      C1417   1.485       .  S
C1121      C1525   1.478       .  S
C1122      C1408   1.486       .  S
O1123      V1131   1.894       .  S
O1123      C1133   1.264       .  A
O1124      V1131   1.894       .  S
O1124      C1134   1.263       .  A
O1125      V1131   1.894       .  S
O1125      C1135   1.263       .  A
O1126      V1131   1.894       .  S
O1126      C1136   1.262       .  A
O1127      V1132   1.899       .  S
O1127      C1136   1.266       .  A
O1128      V1132   1.902       .  S
O1128      C1135   1.265       .  A
O1129      V1132   1.892       .  S
O1129      C1134   1.264       .  A
O1130      V1132   1.893       .  S
O1130      C1133   1.263       .  A
V1131      V1132   2.085       .  T
C1133      C1453   1.477       .  S
C1134      C1468   1.482       .  S
C1135      C1492   1.482       .  S
C1136      C1393   1.488       .  S
O1137      V1145   1.886       .  S
O1137      C1147   1.261   1_455  A
O1138      V1145   1.889       .  S
O1138      C1148   1.261   1_455  A
O1139      V1145   1.900       .  S
O1139      C1149   1.267       .  A
O1140      V2969   1.897       .  S
O1140      C1150   1.264       .  A
O1141      V1146   1.897       .  S
O1142      V2970   1.894   1_455  S
O1143      V1146   1.909       .  S
O1143      C2060   1.267       .  A
O1144      V1146   1.913       .  S
O1144      C2059   1.267       .  A
V1145      O2964   1.898   1_455  S
V1145      V2058   2.084   1_455  T
V1146      O2966   1.896       .  S
V1146      V2057   2.084   1_565  T
C1147      O2056   1.266       .  A
C1147      C1648   1.485       .  S
C1148      O2055   1.266       .  A
C1148      C1381   1.476       .  S
C1149      C1372   1.485       .  S
C1150      C1360   1.486       .  S
O1151      V1159   1.899       .  S
O1151      C1161   1.265       .  A
O1152      V2983   1.898       .  S
O1152      C1162   1.266       .  A
O1153      V1159   1.894       .  S
O1153      C2987   1.263       .  A
O1154      V1159   1.892       .  S
O1154      C2988   1.263       .  A
O1155      V1160   1.902       .  S
O1155      C1164   1.266       .  A
O1156      V1160   1.902       .  S
O1156      C1163   1.265       .  A
O1157      V1160   1.892       .  S
O1157      C1162   1.262       .  A
O1158      V2984   1.890       .  S
O1158      C1161   1.263       .  A
V1159      O2976   1.903       .  S
V1159      V2984   2.084       .  T
V1160      O2982   1.891   1_455  S
V1160      V2983   2.083       .  T
C1161      C1324   1.486       .  S
C1162      C1333   1.487       .  S
C1163      O2977   1.264       .  A
C1163      C1345   1.485       .  S
C1164      O2978   1.263       .  A
C1164      C1609   1.490       .  S
O1165      V1173   1.893       .  S
O1165      C1175   1.264       .  A
O1166      V1173   1.895       .  S
O1166      C1176   1.263       .  A
O1167      V1173   1.891       .  S
O1167      C1177   1.264       .  A
O1168      V1173   1.890       .  S
O1168      C1178   1.262       .  A
O1169      V1174   1.895       .  S
O1170      V1174   1.894       .  S
O1171      V1174   1.902       .  S
O1172      V1174   1.905       .  S
C1175      C1600   1.487       .  S
C1177      C1357   1.486       .  S
C1178      C1369   1.485       .  S
O1179      V1187   1.893       .  S
O1179      C1189   1.263       .  A
O1180      V1187   1.892       .  S
O1180      C1190   1.264       .  A
O1181      V1187   1.888       .  S
O1181      C1191   1.262       .  A
O1182      V1187   1.887       .  S
O1182      C1192   1.262       .  A
O1183      V1188   1.912       .  S
O1183      C1192   1.268       .  A
O1184      V1188   1.907       .  S
O1184      C1191   1.267       .  A
O1185      V1188   1.899       .  S
O1185      C1190   1.264       .  A
O1186      V1188   1.894       .  S
O1186      C1189   1.265       .  A
V1187      V1188   2.083       .  T
C1189      C1336   1.485       .  S
C1190      C1321   1.487       .  S
C1191      C1297   1.483       .  S
C1192      C1585   1.493       .  S
O1193      V3025   1.893       .  S
O1193      C1203   1.263       .  A
O1194      C1204   1.263       .  A
O1195      V1201   1.898       .  S
O1196      V1201   1.898       .  S
O1197      V1202   1.901       .  S
O1197      C3030   1.265       .  A
O1198      V1202   1.903       .  S
O1198      C3029   1.266       .  A
O1199      V3026   1.893   1_455  S
O1199      C1204   1.264       .  A
O1200      C1203   1.263       .  A
V1201      O3017   1.889   1_455  S
V1201      V2114   2.084   1_465  T
V1202      O3023   1.890       .  S
V1202      V2113   2.085       .  T
C1203      C1276   1.479       .  S
C1204      C1285   1.483       .  S
C1205      O3022   1.266       .  A
C1205      C1480   1.488       .  S
C1206      O3021   1.266       .  A
C1206      C1384   1.483       .  S
O1207      V1215   1.888       .  S
O1207      C1217   1.262       .  A
O1208      V3039   1.888   1_455  S
O1208      C1218   1.262       .  A
O1209      V1215   1.901       .  S
O1209      C3043   1.265       .  A
O1210      V1215   1.900       .  S
O1210      C3044   1.266       .  A
O1211      V1216   1.894       .  S
O1211      C1220   1.262   1_455  A
O1212      V1216   1.892       .  S
O1212      C1219   1.263       .  A
O1213      V1216   1.905       .  S
O1213      C1218   1.267       .  A
O1214      V3040   1.904       .  S
O1214      C1217   1.266       .  A
V1215      O3032   1.888       .  S
V1215      V3040   2.085       .  T
V1216      O3038   1.903   1_455  S
V1216      V3039   2.084   1_455  T
C1217      C1249   1.479       .  S
C1218      C1261   1.486       .  S
C1219      O3033   1.265   1_455  A
C1219      C1348   1.479       .  S
C1220      O3034   1.267       .  A
C1220      C1444   1.489       .  S
O1221      C1231   1.265       .  A
O1222      V1229   1.902       .  S
O1222      C1232   1.266       .  A
O1223      V1229   1.891       .  S
O1224      V1229   1.892       .  S
O1225      V1230   1.901       .  S
O1225      C1234   1.266       .  A
O1226      V1230   1.896       .  S
O1226      C1233   1.265       .  A
O1227      C1232   1.261       .  A
O1228      V1230   1.898       .  S
O1228      C1231   1.264       .  A
C1231      C1264   1.485       .  S
C1232      C1252   1.479       .  S
C1233      C1309   1.481       .  S
C1234      C1405   1.487       .  S
O1235      V1243   1.891       .  S
O1235      C1245   1.262       .  A
O1236      V1243   1.892       .  S
O1236      C1246   1.263       .  A
O1237      V1243   1.890       .  S
O1237      C1247   1.264       .  A
O1238      V1243   1.891       .  S
O1238      C1248   1.264       .  A
O1239      V1244   1.896       .  S
O1239      C1248   1.264       .  A
O1240      V1244   1.892       .  S
O1240      C1247   1.263       .  A
O1241      V1244   1.903       .  S
O1241      C1246   1.266       .  A
O1242      V1244   1.902       .  S
O1242      C1245   1.266       .  A
V1243      V1244   2.084       .  T
C1245      C1396   1.488       .  S
C1246      C1300   1.481       .  S
C1247      C1273   1.481       .  S
C1248      C1288   1.482       .  S
C1249      C1250   1.403       .  A
C1249      C1254   1.415       .  A
C1250      C1251   1.401       .  A
C1250      H1255   1.084       .  S
C1251      C1252   1.415       .  A
C1251      C1258   1.445       .  S
C1252      C1253   1.402       .  A
C1253      C1254   1.398       .  A
C1253      H1256   1.085       .  S
C1254      C1257   1.445       .  S
C1257      N1259   1.157       .  T
C1258      N1260   1.157       .  T
C1261      C1262   1.405       .  A
C1261      C1266   1.417       .  A
C1262      C1263   1.401       .  A
C1262      H1267   1.085       .  S
C1263      C1264   1.415       .  A
C1263      C1270   1.443       .  S
C1264      C1265   1.404       .  A
C1265      C1266   1.397       .  A
C1265      H1268   1.085       .  S
C1266      C1269   1.445       .  S
C1269      N1271   1.157       .  T
C1270      N1272   1.157       .  T
C1273      C1274   1.406       .  A
C1273      C1278   1.415       .  A
C1274      C1275   1.397       .  A
C1274      H1279   1.085       .  S
C1275      C1276   1.414       .  A
C1275      C1282   1.445       .  S
C1276      C1277   1.404       .  A
C1277      C1278   1.395       .  A
C1277      H1280   1.085       .  S
C1278      C1281   1.444       .  S
C1281      N1283   1.157       .  T
C1282      N1284   1.157       .  T
C1285      C1286   1.406       .  A
C1285      C1290   1.415       .  A
C1286      C1287   1.398       .  A
C1286      H1291   1.085       .  S
C1287      C1288   1.415       .  A
C1287      C1294   1.445       .  S
C1288      C1289   1.405       .  A
C1289      C1290   1.397       .  A
C1289      H1292   1.085       .  S
C1290      C1293   1.445       .  S
C1293      N1295   1.157       .  T
C1294      N1296   1.158       .  T
C1297      C1298   1.405       .  A
C1297      C1302   1.413       .  A
C1298      C1299   1.398       .  A
C1298      H1303   1.084       .  S
C1299      C1300   1.413       .  A
C1299      C1306   1.445       .  S
C1300      C1301   1.405       .  A
C1301      C1302   1.402       .  A
C1301      H1304   1.084       .  S
C1302      C1305   1.443       .  S
C1305      N1307   1.157       .  T
C1306      N1308   1.157       .  T
C1309      C1314   1.415   1_565  A
C1310      C1311   1.402       .  A
C1310      H1315   1.084       .  S
C1311      C1318   1.443       .  S
C1312      C1313   1.403   1_565  A
C1313      C1314   1.399       .  A
C1313      H1316   1.085       .  S
C1314      C1317   1.445       .  S
C1317      N1319   1.158       .  T
C1318      N1320   1.157       .  T
C1321      C1322   1.406       .  A
C1321      C1326   1.416       .  A
C1322      C1323   1.397       .  A
C1322      H1327   1.085       .  S
C1323      C1324   1.414       .  A
C1323      C1330   1.444       .  S
C1324      C1325   1.408       .  A
C1325      C1326   1.399       .  A
C1325      H1328   1.085       .  S
C1326      C1329   1.445       .  S
C1329      N1331   1.158       .  T
C1330      N1332   1.157       .  T
C1333      C1334   1.406       .  A
C1333      C1338   1.417       .  A
C1334      C1335   1.399       .  A
C1334      H1339   1.085       .  S
C1335      C1336   1.417       .  A
C1335      C1342   1.445       .  S
C1336      C1337   1.405       .  A
C1337      C1338   1.397       .  A
C1337      H1340   1.085       .  S
C1338      C1341   1.445       .  S
C1341      N1343   1.158       .  T
C1342      N1344   1.158       .  T
C1345      C3170   1.406       .  A
C1345      C1350   1.416       .  A
C1346      C3169   1.406       .  A
C1346      C1347   1.400       .  A
C1346      H1351   1.084       .  S
C1347      C3172   1.413       .  A
C1347      C1354   1.445       .  S
C1348      C3171   1.412       .  A
C1348      C1349   1.404       .  A
C1349      C1350   1.402       .  A
C1349      H1352   1.084       .  S
C1350      C1353   1.444       .  S
C1353      N1355   1.157       .  T
C1354      N1356   1.157       .  T
C1357      C1358   1.407       .  A
C1358      C1359   1.398       .  A
C1358      H1363   1.084       .  S
C1359      C1360   1.415       .  A
C1359      C1366   1.445       .  S
C1361      C1362   1.400       .  A
C1361      H1364   1.085       .  S
C1362      C1365   1.445       .  S
C1365      N1367   1.158       .  T
C1366      N1368   1.157       .  T
C1369      C1374   1.416       .  A
C1370      C1371   1.399       .  A
C1370      H1375   1.085       .  S
C1371      C1378   1.445       .  S
C1372      C1373   1.404       .  A
C1373      C1374   1.398       .  A
C1373      H1376   1.085       .  S
C1374      C1377   1.445       .  S
C1377      N1379   1.157       .  T
C1378      N1380   1.158       .  T
C1381      C3206   1.404       .  A
C1382      C3205   1.408       .  A
C1382      C1383   1.401       .  A
C1382      H1387   1.084       .  S
C1383      C3208   1.411       .  A
C1383      C1390   1.445       .  S
C1384      C3207   1.414       .  A
C1385      C1386   1.401       .  A
C1385      H1388   1.084       .  S
C1386      C1389   1.444       .  S
C1389      N1391   1.157       .  T
C1390      N1392   1.157       .  T
C1393      C1394   1.404       .  A
C1393      C1398   1.417       .  A
C1394      C1395   1.398       .  A
C1394      H1399   1.085       .  S
C1395      C1396   1.417       .  A
C1395      C1402   1.445       .  S
C1396      C1397   1.406       .  A
C1397      C1398   1.401       .  A
C1397      H1400   1.085       .  S
C1398      C1401   1.445       .  S
C1401      N1403   1.157       .  T
C1402      N1404   1.157       .  T
C1405      C1406   1.407       .  A
C1406      C1407   1.402       .  A
C1406      H1411   1.084       .  S
C1407      C1408   1.416       .  A
C1407      C1414   1.445       .  S
C1409      C1410   1.400       .  A
C1409      H1412   1.085       .  S
C1410      C1413   1.445       .  S
C1413      N1415   1.157       .  T
C1414      N1416   1.158       .  T
C1417      C1418   1.405       .  A
C1417      C1422   1.416       .  A
C1418      C1419   1.397       .  A
C1418      H1423   1.084       .  S
C1419      C1420   1.416       .  A
C1419      C1426   1.445       .  S
C1420      C1421   1.406       .  A
C1421      C1422   1.399       .  A
C1421      H1424   1.084       .  S
C1422      C1425   1.445       .  S
C1425      N1427   1.158       .  T
C1426      N1428   1.157       .  T
C1429      C1430   1.404       .  A
C1429      C1434   1.415       .  A
C1430      C1431   1.397       .  A
C1430      H1435   1.085       .  S
C1431      C1432   1.414       .  A
C1431      C1438   1.445       .  S
C1432      C1433   1.403       .  A
C1433      C1434   1.398       .  A
C1433      H1436   1.085       .  S
C1434      C1437   1.444       .  S
C1437      N1439   1.157       .  T
C1438      N1440   1.157       .  T
C1441      C2930   1.488       .  S
C1441      C3266   1.405   1_655  A
C1441      C1446   1.417       .  A
C1442      C3265   1.405       .  A
C1442      C1443   1.402       .  A
C1442      H1447   1.084       .  S
C1443      C3268   1.417       .  A
C1443      C1450   1.445       .  S
C1444      C3267   1.418   1_655  A
C1444      C1445   1.405       .  A
C1445      C1446   1.399       .  A
C1445      H1448   1.084       .  S
C1446      C1449   1.445       .  S
C1449      N1451   1.157       .  T
C1450      N1452   1.157       .  T
C1453      C1454   1.404       .  A
C1453      C1458   1.412       .  A
C1454      C1455   1.399       .  A
C1454      H1459   1.085       .  S
C1455      C1456   1.414       .  A
C1455      C1462   1.445       .  S
C1456      C1457   1.404       .  A
C1457      C1458   1.397       .  A
C1457      H1460   1.085       .  S
C1458      C1461   1.445       .  S
C1461      N1463   1.157       .  T
C1462      N1464   1.157       .  T
C1465      C1466   1.405       .  A
C1465      C1470   1.414       .  A
C1466      C1467   1.398       .  A
C1466      H1471   1.085       .  S
C1467      C1468   1.415       .  A
C1467      C1474   1.444       .  S
C1468      C1469   1.405       .  A
C1469      C1470   1.397       .  A
C1469      H1472   1.085       .  S
C1470      C1473   1.444       .  S
C1473      N1475   1.157       .  T
C1474      N1476   1.157       .  T
C1477      C3306   1.417       .  A
C1478      C1479   1.401       .  A
C1478      H1483   1.085       .  S
C1479      C1486   1.445       .  S
C1480      C3305   1.405       .  A
C1481      C3304   1.408       .  A
C1481      C1482   1.404       .  A
C1481      H1484   1.085       .  S
C1482      C3301   1.415       .  A
C1482      C1485   1.445       .  S
C1485      N1487   1.158       .  T
C1486      N1488   1.157   1_565  T
C1489      C1490   1.403       .  A
C1489      C1494   1.414       .  A
C1490      C1491   1.400   1_554  A
C1490      H1495   1.084       .  S
C1491      C1492   1.415       .  A
C1491      C1498   1.445       .  S
C1492      C1493   1.404       .  A
C1493      C1494   1.401   1_556  A
C1493      H1496   1.084       .  S
C1494      C1497   1.445       .  S
C1497      N1499   1.157       .  T
C1498      N1500   1.157       .  T
C1501      C1502   1.405       .  A
C1501      C1506   1.415       .  A
C1502      C1503   1.397       .  A
C1502      H1507   1.085       .  S
C1503      C1504   1.414       .  A
C1503      C1510   1.445       .  S
C1504      C1505   1.406       .  A
C1505      C1506   1.397       .  A
C1505      H1508   1.085       .  S
C1506      C1509   1.445       .  S
C1509      N1511   1.158       .  T
C1510      N1512   1.157       .  T
C1513      C1514   1.405       .  A
C1513      C1518   1.416       .  A
C1514      C1515   1.397       .  A
C1514      H1519   1.085       .  S
C1515      C1516   1.415       .  A
C1515      C1522   1.445       .  S
C1516      C1517   1.405       .  A
C1517      C1518   1.395       .  A
C1517      H1520   1.085       .  S
C1518      C1521   1.446       .  S
C1521      N1523   1.158       .  T
C1522      N1524   1.157       .  T
C1525      C1530   1.411       .  A
C1526      C1527   1.401   1_556  A
C1526      H1531   1.084       .  S
C1527      C1528   1.412       .  A
C1527      C1534   1.445       .  S
C1529      C1530   1.396   1_554  A
C1529      H1532   1.084       .  S
C1530      C1533   1.445       .  S
C1533      N1535   1.157       .  T
C1534      N1536   1.157       .  T
C1537      C1538   1.403       .  A
C1537      C3366   1.413       .  A
C1538      C1539   1.400   1_554  A
C1538      H1543   1.085       .  S
C1539      C1540   1.416       .  A
C1539      C1546   1.445       .  S
C1540      C3365   1.406       .  A
C1541      C3364   1.405   1_455  A
C1541      C1542   1.401   1_556  A
C1541      H1544   1.084       .  S
C1542      C3361   1.414       .  A
C1542      C1545   1.445       .  S
C1545      N1547   1.158       .  T
C1546      N1548   1.157       .  T
C1549      C1550   1.406       .  A
C1549      C3378   1.414   1_455  A
C1550      C1551   1.399       .  A
C1550      H1555   1.085       .  S
C1551      C1552   1.414       .  A
C1551      C1558   1.445       .  S
C1552      C3377   1.406   1_455  A
C1553      C3376   1.405       .  A
C1553      C1554   1.396       .  A
C1553      H1556   1.085       .  S
C1554      C3373   1.412       .  A
C1554      C1557   1.445       .  S
C1557      N1559   1.157       .  T
C1558      N1560   1.157       .  T
C1561      C3386   1.404   1_455  A
C1561      C1566   1.413       .  A
C1562      C3385   1.404       .  A
C1562      C1563   1.397       .  A
C1562      H1567   1.085       .  S
C1563      C3388   1.415       .  A
C1563      C1570   1.445       .  S
C1564      C3387   1.414   1_455  A
C1564      C1565   1.403       .  A
C1565      C1566   1.395       .  A
C1565      H1568   1.085       .  S
C1566      C1569   1.445       .  S
C1569      N1571   1.157       .  T
C1570      N1572   1.157       .  T
C1573      C3402   1.414       .  A
C1574      C1575   1.403   1_556  A
C1574      H1579   1.084       .  S
C1575      C1582   1.445       .  S
C1576      C3401   1.406       .  A
C1577      C3400   1.408       .  A
C1577      C1578   1.403   1_554  A
C1577      H1580   1.084       .  S
C1578      C3397   1.413       .  A
C1578      C1581   1.445       .  S
C1581      N1583   1.157       .  T
C1582      N1584   1.157       .  T
C1585      C1586   1.409       .  A
C1585      C1590   1.418       .  A
C1586      C1587   1.407       .  A
C1586      H1591   1.085       .  S
C1587      C1588   1.416       .  A
C1587      C1594   1.444       .  S
C1588      C1589   1.405       .  A
C1589      C1590   1.394       .  A
C1589      H1592   1.085       .  S
C1590      C1593   1.446       .  S
C1593      N1595   1.158       .  T
C1594      N1596   1.157       .  T
C1597      C1602   1.414       .  A
C1598      C1599   1.404       .  A
C1598      H1603   1.085       .  S
C1599      C1606   1.445       .  S
C1600      C1601   1.407       .  A
C1601      C1602   1.398       .  A
C1601      H1604   1.085       .  S
C1602      C1605   1.445       .  S
C1605      N1607   1.157       .  T
C1606      N1608   1.158       .  T
C1609      C3434   1.406       .  A
C1609      C1614   1.417   1_455  A
C1610      C3433   1.404       .  A
C1610      C1611   1.400       .  A
C1610      H1615   1.085       .  S
C1611      C3436   1.415       .  A
C1611      C1618   1.445       .  S
C1612      C3435   1.416       .  A
C1612      C1613   1.406   1_455  A
C1613      C1614   1.399       .  A
C1613      H1616   1.085       .  S
C1614      C1617   1.445       .  S
C1617      N1619   1.158       .  T
C1618      N1620   1.157       .  T
C1621      C1622   1.408       .  A
C1621      C1626   1.415       .  A
C1622      C1623   1.400       .  A
C1622      H1627   1.085       .  S
C1623      C1624   1.415       .  A
C1623      C1630   1.444       .  S
C1624      C1625   1.408       .  A
C1625      C1626   1.400       .  A
C1625      H1628   1.085       .  S
C1626      C1629   1.445       .  S
C1629      N1631   1.158       .  T
C1630      N1632   1.157       .  T
C1633      C1634   1.403       .  A
C1633      C1638   1.415       .  A
C1634      C1635   1.399       .  A
C1634      H1639   1.084       .  S
C1635      C1636   1.418       .  A
C1635      C1642   1.445       .  S
C1636      C1637   1.405       .  A
C1637      C1638   1.401       .  A
C1637      H1640   1.084       .  S
C1638      C1641   1.445       .  S
C1641      N1643   1.157       .  T
C1642      N1644   1.157       .  T
C1645      C1646   1.402   1_655  A
C1645      C2562   1.414       .  A
C1646      C1647   1.394       .  A
C1646      H1651   1.085       .  S
C1647      C1648   1.417   1_455  A
C1647      C1654   1.445       .  S
C1648      C2561   1.407       .  A
C1649      C2560   1.407       .  A
C1649      C1650   1.407       .  A
C1649      H1652   1.085       .  S
C1650      C2557   1.416       .  A
C1650      C1653   1.444       .  S
C1653      N1655   1.158       .  T
C1654      N1656   1.157       .  T
C1657      C1662   1.414       .  A
C1658      C1659   1.399       .  A
C1658      H1663   1.085       .  S
C1659      C1666   1.445       .  S
C1660      C1661   1.406       .  A
C1661      C1662   1.400       .  A
C1661      H1664   1.085       .  S
C1662      C1665   1.444       .  S
C1665      N1667   1.157       .  T
C1666      N1668   1.157       .  T
C1669      C1674   1.416       .  A
C1670      C1671   1.399       .  A
C1670      H1675   1.085       .  S
C1671      C1678   1.445       .  S
C1672      C1673   1.407       .  A
C1673      C1674   1.400       .  A
C1673      H1676   1.085       .  S
C1674      C1677   1.445       .  S
C1677      N1679   1.158       .  T
C1678      N1680   1.158       .  T
C1681      C1682   1.406       .  A
C1681      C1686   1.415       .  A
C1682      C1683   1.399       .  A
C1682      H1687   1.085       .  S
C1683      C1684   1.417       .  A
C1683      C1690   1.445       .  S
C1684      C1685   1.408       .  A
C1685      C1686   1.403       .  A
C1685      H1688   1.085       .  S
C1686      C1689   1.444       .  S
C1689      N1691   1.157       .  T
C1690      N1692   1.158       .  T
C1693      C1694   1.401       .  A
C1693      C1698   1.414       .  A
C1694      C1695   1.402       .  A
C1694      H1699   1.085       .  S
C1695      C1696   1.419       .  A
C1695      C1702   1.445       .  S
C1696      C1697   1.404       .  A
C1697      C1698   1.401       .  A
C1697      H1700   1.084       .  S
C1698      C1701   1.445       .  S
C1701      N1703   1.157       .  T
C1702      N1704   1.157       .  T
C1705      C1706   1.403       .  A
C1705      C1710   1.414       .  A
C1706      C1707   1.398       .  A
C1706      H1711   1.084       .  S
C1707      C1708   1.413       .  A
C1707      C1714   1.445       .  S
C1708      C1709   1.402       .  A
C1709      C1710   1.396       .  A
C1709      H1712   1.085       .  S
C1710      C1713   1.445       .  S
C1713      N1715   1.157       .  T
C1714      N1716   1.157       .  T
C1717      C1718   1.404       .  A
C1717      C1722   1.416       .  A
C1718      C1719   1.398       .  A
C1718      H1723   1.085       .  S
C1719      C1720   1.416       .  A
C1719      C1726   1.445       .  S
C1720      C1721   1.404       .  A
C1721      C1722   1.397       .  A
C1721      H1724   1.085       .  S
C1722      C1725   1.445       .  S
C1725      N1727   1.158       .  T
C1726      N1728   1.157       .  T
C1729      C1734   1.414       .  A
C1730      C1731   1.397       .  A
C1730      H1735   1.085       .  S
C1731      C1738   1.445       .  S
C1732      C1733   1.406       .  A
C1733      C1734   1.400       .  A
C1733      H1736   1.085       .  S
C1734      C1737   1.444       .  S
C1737      N1739   1.157       .  T
C1738      N1740   1.157       .  T
C1741      C1742   1.402       .  A
C1742      C1743   1.399       .  A
C1742      H1747   1.084       .  S
C1743      C1744   1.415       .  A
C1743      C1750   1.445       .  S
C1745      C1746   1.398       .  A
C1745      H1748   1.084       .  S
C1746      C1749   1.445       .  S
C1749      N1751   1.157       .  T
C1750      N1752   1.157       .  T
C1753      C3578   1.405   1_455  A
C1753      C1758   1.414       .  A
C1754      C3577   1.406       .  A
C1754      C1755   1.399       .  A
C1754      H1759   1.084       .  S
C1755      C3580   1.416       .  A
C1755      C1762   1.445       .  S
C1756      C2876   1.484       .  S
C1756      C3579   1.415   1_455  A
C1756      C1757   1.406       .  A
C1757      C1758   1.399       .  A
C1757      H1760   1.085       .  S
C1758      C1761   1.445       .  S
C1761      N1763   1.157       .  T
C1762      N1764   1.157       .  T
C1765      C3590   1.400   1_455  A
C1765      C1770   1.410       .  A
C1766      C3589   1.403       .  A
C1766      C1767   1.398       .  A
C1766      H1771   1.084       .  S
C1767      C3592   1.414       .  A
C1767      C1774   1.444       .  S
C1768      C3591   1.417   1_455  A
C1768      C1769   1.409       .  A
C1769      C1770   1.403       .  A
C1769      H1772   1.084       .  S
C1770      C1773   1.445       .  S
C1773      N1775   1.157       .  T
C1774      N1776   1.157       .  T
C1777      C1778   1.405       .  A
C1777      C3606   1.417       .  A
C1778      C1779   1.398       .  A
C1778      H1783   1.086       .  S
C1779      C3604   1.416       .  A
C1779      C1786   1.445       .  S
C1780      C3603   1.417   1_455  A
C1780      C1781   1.405       .  A
C1781      C1782   1.398       .  A
C1781      H1784   1.086       .  S
C1782      C3601   1.415       .  A
C1782      C1785   1.445       .  S
C1785      N1787   1.158       .  T
C1786      N1788   1.157       .  T
C1789      C3614   1.405   1_455  A
C1789      C1794   1.412       .  A
C1790      C3613   1.405       .  A
C1790      C1791   1.397       .  A
C1790      H1795   1.085       .  S
C1791      C1792   1.413       .  A
C1791      C1798   1.444       .  S
C1792      C3617   1.406       .  A
C1793      C3616   1.405       .  A
C1793      C1794   1.398       .  A
C1793      H1796   1.085       .  S
C1794      C1797   1.445       .  S
C1797      N1799   1.157       .  T
C1798      N1800   1.157       .  T
C1801      C3630   1.415   1_445  A
C1802      C1803   1.403       .  A
C1802      H1807   1.085       .  S
C1803      C1810   1.444       .  S
C1804      C3629   1.405   1_445  A
C1805      C3628   1.406   1_565  A
C1805      C1806   1.394       .  A
C1805      H1808   1.085       .  S
C1806      C3625   1.416   1_565  A
C1806      C1809   1.445       .  S
C1809      N1811   1.157       .  T
C1810      N1812   1.157       .  T
C1813      C2726   1.399   1_455  A
C1813      C1818   1.411       .  A
C1814      C2725   1.401   1_565  A
C1814      C1815   1.397       .  A
C1814      H1819   1.085       .  S
C1815      C2728   1.418   1_565  A
C1815      C1822   1.445       .  S
C1816      C2727   1.419   1_455  A
C1816      C1817   1.406       .  A
C1817      C1818   1.401       .  A
C1817      H1820   1.084       .  S
C1818      C1821   1.445       .  S
C1821      N1823   1.157       .  T
C1822      N1824   1.157       .  T
O1825      V2745   1.883       .  S
O1826      V1833   1.894       .  S
O1827      V1833   1.913       .  S
O1827      C1837   1.268       .  A
O1828      V1833   1.914       .  S
O1828      C1838   1.268       .  A
O1829      V1834   1.890       .  S
O1830      V1834   1.888       .  S
O1831      V2746   1.897       .  S
O1831      C1836   1.264   1_655  A
O1832      V1834   1.902       .  S
O1832      C1835   1.266   1_655  A
V1833      O2737   1.891   1_545  S
V1834      O2743   1.902       .  S
C1835      C2689   1.484       .  S
C1836      C2704   1.478       .  S
C1837      C2728   1.485       .  S
C1838      C3628   1.490       .  S
O1839      V1847   1.894       .  S
O1839      C1849   1.265       .  A
O1840      V1847   1.898       .  S
O1840      C1850   1.264       .  A
O1841      V1847   1.894       .  S
O1841      C1851   1.263       .  A
O1842      V1847   1.896       .  S
O1842      C1852   1.263       .  A
O1843      V1848   1.899       .  S
O1844      V1848   1.901       .  S
O1845      V1848   1.893       .  S
O1846      V1848   1.895       .  S
C1849      C2692   1.478       .  S
C1850      C2701   1.481       .  S
C1851      C2665   1.485       .  S
C1852      C2677   1.484       .  S
O1853      V2773   1.888       .  S
O1853      C1863   1.262       .  A
O1854      V1861   1.891       .  S
O1854      C1864   1.262       .  A
O1855      V1861   1.894       .  S
O1855      C1865   1.263   1_545  A
O1856      V1861   1.892       .  S
O1856      C1866   1.263   1_545  A
O1857      V1862   1.899       .  S
O1857      C2778   1.265       .  A
O1858      V1862   1.897       .  S
O1858      C2777   1.264       .  A
O1859      V2774   1.899   1_545  S
O1859      C1864   1.266       .  A
O1860      V1862   1.896       .  S
O1860      C1863   1.264       .  A
V1861      O2765   1.890   1_545  S
V1861      V2774   2.084   1_545  T
V1862      O2771   1.897       .  S
V1862      V2773   2.085       .  T
C1863      C2620   1.477       .  S
C1864      C2632   1.486       .  S
C1865      O2770   1.266       .  A
C1865      C2656   1.486       .  S
C1866      O2769   1.266       .  A
C1866      C2644   1.489       .  S
O1867      V1875   1.886       .  S
O1867      C1877   1.261       .  A
O1868      V1875   1.887       .  S
O1868      C1878   1.261       .  A
O1869      V1875   1.909       .  S
O1869      C1879   1.268       .  A
O1870      V1875   1.907       .  S
O1870      C1880   1.267       .  A
O1871      V1876   1.895       .  S
O1871      C1880   1.264       .  A
O1872      V1876   1.897       .  S
O1872      C1879   1.263       .  A
O1873      V1876   1.904       .  S
O1873      C1878   1.267       .  A
O1874      V1876   1.896       .  S
O1874      C1877   1.265       .  A
V1875      V1876   2.085       .  T
C1877      C2617   1.475       .  S
C1878      C2629   1.487       .  S
C1879      C2605   1.484       .  S
C1880      C2593   1.490       .  S
O1881      C2803   1.265       .  A
O1882      V1889   1.892       .  S
O1882      C2804   1.264       .  A
O1883      V1889   1.900       .  S
O1884      V1889   1.902       .  S
O1885      V1890   1.893       .  S
O1885      C1894   1.265   1_545  A
O1886      V1890   1.898       .  S
O1886      C1893   1.263       .  A
O1887      C1892   1.265   1_545  A
O1888      V1890   1.899       .  S
O1888      C1891   1.264       .  A
C1891      O2793   1.264   1_545  A
C1891      C2581   1.485       .  S
C1892      O2794   1.263       .  A
C1892      C2569   1.484       .  S
C1893      C2725   1.481       .  S
C1894      C2557   1.487       .  S
O1895      C1905   1.263       .  A
O1896      V1903   1.893   1_655  S
O1896      C1906   1.264       .  A
O1897      V1903   1.888       .  S
O1898      V1903   1.887       .  S
O1899      V1904   1.906       .  S
O1899      C1908   1.266       .  A
O1900      V1904   1.905       .  S
O1900      C1907   1.266       .  A
O1901      C1906   1.264       .  A
O1902      V1904   1.896       .  S
O1902      C1905   1.265       .  A
C1905      C2548   1.484       .  S
C1906      C2533   1.486       .  S
C1907      C2680   1.484       .  S
C1908      C2524   1.485       .  S
O1909      V1917   1.899       .  S
O1909      C1919   1.265   1_545  A
O1910      V1917   1.901       .  S
O1910      C1920   1.265   1_545  A
O1911      V1917   1.895       .  S
O1911      C1921   1.264   1_545  A
O1912      V1917   1.892       .  S
O1912      C1922   1.264   1_545  A
O1913      V1918   1.896       .  S
O1913      C2834   1.263       .  A
O1914      V1918   1.892       .  S
O1914      C2833   1.263       .  A
O1915      V1918   1.894       .  S
O1915      C2832   1.263       .  A
O1916      V1918   1.894       .  S
O1916      C2831   1.264       .  A
V1917      V2830   2.085   1_545  T
V1918      V2829   2.084       .  T
C1919      O2828   1.263       .  A
C1919      C2509   1.485       .  S
C1920      O2827   1.262       .  A
C1920      C2653   1.475       .  S
C1921      O2826   1.264       .  A
C1921      C2584   1.486       .  S
C1922      O2825   1.264       .  A
C1922      C2572   1.483       .  S
O1923      V1931   1.901       .  S
O1923      C1933   1.266       .  A
O1924      V1931   1.902       .  S
O1924      C1934   1.267       .  A
O1925      V1931   1.888       .  S
O1925      C1935   1.261       .  A
O1926      V1931   1.885       .  S
O1926      C1936   1.261       .  A
O1927      V1932   1.916       .  S
O1927      C1936   1.269       .  A
O1928      V1932   1.920       .  S
O1928      C1935   1.270       .  A
O1929      V1932   1.888       .  S
O1929      C1934   1.261       .  A
O1930      V1932   1.892       .  S
O1930      C1933   1.263       .  A
V1931      V1932   2.083       .  T
C1933      C2536   1.488       .  S
C1934      C2545   1.486       .  S
C1935      C2608   1.496       .  S
C1936      C2500   1.483       .  S
O1937      V2857   1.890       .  S
O1937      C1947   1.262       .  A
O1938      V1945   1.888       .  S
O1938      C1948   1.262       .  A
O1939      V1945   1.907       .  S
O1939      C2861   1.266       .  A
O1940      V1945   1.904       .  S
O1940      C2862   1.267   1_545  A
O1941      V1946   1.898       .  S
O1942      V1946   1.897       .  S
O1943      V2858   1.894   1_545  S
O1944      V1946   1.893       .  S
V1945      O2849   1.890   1_545  S
V1946      O2855   1.895       .  S
C1947      C2461   1.479       .  S
C1948      C2473   1.483       .  S
C1949      O2851   1.267       .  A
C1949      C2713   1.486       .  S
C1950      O2852   1.267       .  A
C1950      C2488   1.486       .  S
O1951      V1959   1.888       .  S
O1952      V1959   1.886       .  S
O1953      V1959   1.896       .  S
O1953      C1963   1.264   1_655  A
O1954      V1959   1.897       .  S
O1954      C1964   1.264   1_655  A
O1955      V1960   1.897       .  S
O1956      V1960   1.901       .  S
O1957      V1960   1.897       .  S
O1957      C1962   1.264       .  A
O1958      V1960   1.895       .  S
O1958      C1961   1.265       .  A
C1961      C2476   1.480       .  S
C1962      C2464   1.478       .  S
C1963      C2449   1.480       .  S
O1965      V1973   1.906       .  S
O1965      C2887   1.266       .  A
O1966      V1973   1.907       .  S
O1966      C2888   1.266       .  A
O1967      V2885   1.889   1_545  S
O1967      C1977   1.262       .  A
O1968      V1973   1.891       .  S
O1968      C1978   1.262       .  A
O1969      V2886   1.894       .  S
O1969      C1978   1.264       .  A
O1970      V1974   1.893   1_545  S
O1970      C1977   1.264       .  A
O1971      V1974   1.888       .  S
O1971      C1976   1.263       .  A
O1972      V1974   1.888       .  S
O1972      C1975   1.262       .  A
V1973      O2879   1.887       .  S
V1973      V2886   2.085       .  T
V1974      O2881   1.892       .  S
V1974      V2885   2.085       .  T
C1975      O2877   1.266       .  A
C1975      C2440   1.478       .  S
C1976      O2878   1.266       .  A
C1976      C2641   1.487       .  S
C1977      C2425   1.480       .  S
C1978      C2413   1.479       .  S
O1979      V1987   1.902       .  S
O1979      C1989   1.265       .  A
O1980      V1987   1.900       .  S
O1980      C1990   1.266       .  A
O1981      V1987   1.892       .  S
O1981      C1991   1.263       .  A
O1982      V1987   1.892       .  S
O1982      C1992   1.264       .  A
O1983      V1988   1.891       .  S
O1983      C1992   1.262       .  A
O1984      V1988   1.892       .  S
O1984      C1991   1.263       .  A
O1985      V1988   1.899       .  S
O1985      C1990   1.264       .  A
O1986      V1988   1.897       .  S
O1986      C1989   1.264       .  A
V1987      V1988   2.085       .  T
C1989      C2401   1.482       .  S
C1990      C2596   1.490       .  S
C1991      C2416   1.476       .  S
C1992      C2428   1.479       .  S
O1993      C2003   1.264       .  A
O1994      V2913   1.895       .  S
O1994      C2004   1.265       .  A
O1995      V2001   1.899       .  S
O1996      V2001   1.897       .  S
O1997      V2002   1.897       .  S
O1997      C2006   1.265       .  A
O1998      V2002   1.902       .  S
O1998      C2005   1.265       .  A
O1999      C2004   1.264       .  A
O2000      V2914   1.889   1_545  S
O2000      C2003   1.263       .  A
V2001      O2906   1.894   1_545  S
V2002      O2912   1.895       .  S
C2003      C2377   1.477       .  S
C2004      C2368   1.486       .  S
C2005      C2485   1.486       .  S
C2006      C3301   1.488       .  S
O2007      V2015   1.892       .  S
O2007      C2017   1.263   1_655  A
O2008      V2015   1.891       .  S
O2008      C2018   1.262       .  A
O2009      V2015   1.895       .  S
O2009      C2019   1.264       .  A
O2010      C2020   1.264       .  A
O2011      V2016   1.889       .  S
O2011      C2020   1.262       .  A
O2012      C2019   1.263       .  A
O2013      V2016   1.902       .  S
O2014      V2016   1.904       .  S
C2017      C2452   1.482       .  S
C2019      C2332   1.479       .  S
C2020      C2341   1.482       .  S
O2021      V2029   1.892       .  S
O2021      C2031   1.265       .  A
O2022      V2941   1.897   1_545  S
O2022      C2032   1.264       .  A
O2023      V2029   1.897       .  S
O2023      C2033   1.264       .  A
O2024      V2029   1.894       .  S
O2024      C2034   1.263       .  A
O2025      V2030   1.893       .  S
O2025      C2946   1.264   1_545  A
O2026      V2030   1.896       .  S
O2026      C2945   1.264   1_545  A
O2027      V2030   1.893       .  S
O2027      C2032   1.263       .  A
O2028      V2942   1.891       .  S
O2028      C2031   1.262       .  A
V2029      O2934   1.893       .  S
V2029      V2942   2.086       .  T
V2030      O2940   1.890   1_545  S
V2030      V2941   2.086   1_545  T
C2031      C2344   1.482       .  S
C2032      C2329   1.480       .  S
C2033      O2938   1.265       .  A
C2033      C2437   1.484       .  S
C2034      O2937   1.264       .  A
C2034      C2320   1.476       .  S
O2035      V2043   1.896       .  S
O2035      C2045   1.264       .  A
O2036      V2043   1.896       .  S
O2036      C2046   1.263       .  A
O2037      V2043   1.903       .  S
O2037      C2047   1.265       .  A
O2038      V2043   1.902       .  S
O2038      C2048   1.265       .  A
O2039      V2044   1.897       .  S
O2039      C2048   1.264       .  A
O2040      V2044   1.894       .  S
O2040      C2047   1.264       .  A
O2041      V2044   1.892       .  S
O2041      C2046   1.264       .  A
O2042      V2044   1.895       .  S
O2042      C2045   1.265       .  A
V2043      V2044   2.084       .  T
C2045      C2365   1.487       .  S
C2046      C2380   1.479       .  S
C2047      C2404   1.485       .  S
C2048      C2305   1.486       .  S
O2049      V2057   1.888       .  S
O2049      C2059   1.262   1_545  A
O2050      V2057   1.890       .  S
O2050      C2060   1.262   1_545  A
O2051      V2057   1.894       .  S
O2051      C2061   1.265   1_545  A
O2052      C2062   1.263   1_545  A
O2053      V2058   1.890       .  S
O2053      C2974   1.263       .  A
O2054      C2973   1.262       .  A
O2055      V2058   1.903       .  S
O2056      V2058   1.906       .  S
C2059      C2560   1.488       .  S
C2060      C2293   1.486       .  S
C2061      O2966   1.263       .  A
C2061      C2284   1.486       .  S
C2062      O2965   1.264       .  A
C2062      C2272   1.484       .  S
O2063      V2071   1.900       .  S
O2063      C2073   1.264       .  A
O2064      C2074   1.264       .  A
O2065      V2071   1.894       .  S
O2066      V2071   1.891       .  S
O2067      V2072   1.904       .  S
O2067      C2076   1.265       .  A
O2068      V2072   1.901       .  S
O2068      C2075   1.265       .  A
O2069      V2072   1.899       .  S
O2069      C2074   1.264       .  A
O2070      C2073   1.265       .  A
C2073      C2236   1.488       .  S
C2074      C2245   1.484       .  S
C2075      C2257   1.483       .  S
C2076      C2521   1.486       .  S
O2077      V2085   1.890       .  S
O2077      C2087   1.263   1_545  A
O2078      V2085   1.891       .  S
O2078      C2088   1.263   1_545  A
O2079      V2085   1.897       .  S
O2079      C2089   1.265   1_545  A
O2080      V2085   1.897       .  S
O2080      C2090   1.264   1_545  A
O2081      V2086   1.896       .  S
O2081      C3002   1.265       .  A
O2082      V2086   1.895       .  S
O2082      C3001   1.263       .  A
O2083      V2086   1.900       .  S
O2083      C3000   1.264       .  A
O2084      V2086   1.901       .  S
O2084      C2999   1.265       .  A
V2085      V2998   2.084   1_545  T
V2086      V2997   2.084       .  T
C2087      O2996   1.265       .  A
C2087      C2512   1.486       .  S
C2088      O2995   1.265       .  A
C2088      C3136   1.482       .  S
C2089      O2994   1.262       .  A
C2089      C2269   1.484       .  S
C2090      O2993   1.264       .  A
C2090      C2281   1.487       .  S
O2091      V2099   1.898       .  S
O2091      C2101   1.265       .  A
O2092      V2099   1.898       .  S
O2092      C2102   1.265       .  A
O2093      V2099   1.900       .  S
O2093      C2103   1.265       .  A
O2094      V2099   1.899       .  S
O2094      C2104   1.265       .  A
O2095      V2100   1.900       .  S
O2095      C2104   1.264       .  A
O2096      V2100   1.896       .  S
O2096      C2103   1.264       .  A
O2097      V2100   1.893       .  S
O2097      C2102   1.264       .  A
O2098      V2100   1.896       .  S
O2098      C2101   1.264       .  A
V2099      V2100   2.085       .  T
C2101      C2248   1.484       .  S
C2102      C2233   1.488       .  S
C2103      C2209   1.486       .  S
C2104      C2497   1.482       .  S
O2105      C2115   1.263       .  A
O2106      V3025   1.893   1_545  S
O2106      C2116   1.264       .  A
O2107      V2113   1.898       .  S
O2107      C3029   1.265       .  A
O2108      V2113   1.900       .  S
O2108      C3030   1.264       .  A
O2109      V2114   1.900       .  S
O2110      V2114   1.901       .  S
O2111      C2116   1.263       .  A
O2112      V3026   1.892       .  S
O2112      C2115   1.264       .  A
V2113      O3018   1.897       .  S
V2114      O3024   1.894   1_545  S
C2115      C2188   1.481       .  S
C2116      C2197   1.480       .  S
C2117      O3019   1.264       .  A
C2117      C2392   1.487       .  S
C2118      O3020   1.264       .  A
C2118      C2296   1.483       .  S
O2119      V2127   1.893       .  S
O2119      C2129   1.263       .  A
O2120      C2130   1.261       .  A
O2121      V2127   1.896       .  S
O2122      V2127   1.894       .  S
O2123      V2128   1.900       .  S
O2123      C2132   1.264       .  A
O2124      V2128   1.897       .  S
O2124      C2131   1.264       .  A
O2125      V2128   1.900       .  S
O2125      C2130   1.265       .  A
O2126      C2129   1.264       .  A
C2129      C2161   1.473       .  S
C2130      C2173   1.478       .  S
C2131      C2260   1.478       .  S
C2132      C2356   1.485       .  S
O2133      V3053   1.899       .  S
O2133      C2143   1.265       .  A
O2134      V2141   1.899       .  S
O2134      C2144   1.264       .  A
O2135      V2141   1.895       .  S
O2135      C3057   1.264   1_545  A
O2136      V2141   1.892       .  S
O2136      C3058   1.263   1_545  A
O2137      V2142   1.899       .  S
O2137      C2146   1.265       .  A
O2138      V2142   1.896       .  S
O2138      C2145   1.264       .  A
O2139      V3054   1.893   1_545  S
O2139      C2144   1.262       .  A
O2140      V2142   1.888       .  S
O2140      C2143   1.261       .  A
V2141      O3045   1.901   1_545  S
V2141      V3054   2.085   1_545  T
V2142      O3051   1.889       .  S
V2142      V3053   2.086       .  T
C2143      C2176   1.475       .  S
C2144      C2164   1.473       .  S
C2145      O3047   1.263       .  A
C2145      C2221   1.479       .  S
C2146      O3048   1.263       .  A
C2146      C2317   1.478       .  S
O2147      V2155   1.897       .  S
O2147      C2157   1.264       .  A
O2148      V2155   1.898       .  S
O2148      C2158   1.264       .  A
O2149      V2155   1.893       .  S
O2149      C2159   1.264       .  A
O2150      V2155   1.889       .  S
O2150      C2160   1.264       .  A
O2151      V2156   1.896       .  S
O2151      C2160   1.263       .  A
O2152      V2156   1.891       .  S
O2152      C2159   1.263       .  A
O2153      V2156   1.898       .  S
O2153      C2158   1.264       .  A
O2154      V2156   1.899       .  S
O2154      C2157   1.265       .  A
V2155      V2156   2.086       .  T
C2157      C2308   1.484       .  S
C2158      C2212   1.478       .  S
C2159      C2185   1.481       .  S
C2160      C2200   1.481       .  S
C2161      C2162   1.402       .  A
C2161      C2166   1.412       .  A
C2162      C2163   1.399       .  A
C2162      H2167   1.085       .  S
C2163      C2164   1.412       .  A
C2163      C2170   1.444       .  S
C2164      C2165   1.402       .  A
C2165      C2166   1.398       .  A
C2165      H2168   1.085       .  S
C2166      C2169   1.445       .  S
C2169      N2171   1.157       .  T
C2170      N2172   1.157       .  T
C2173      C2174   1.403       .  A
C2173      C2178   1.416       .  A
C2174      C2175   1.398       .  A
C2174      H2179   1.085       .  S
C2175      C2176   1.414       .  A
C2175      C2182   1.445       .  S
C2176      C2177   1.401       .  A
C2177      C2178   1.398       .  A
C2177      H2180   1.085       .  S
C2178      C2181   1.445       .  S
C2181      N2183   1.157       .  T
C2182      N2184   1.157       .  T
C2185      C2186   1.405       .  A
C2185      C2190   1.415       .  A
C2186      C2187   1.397       .  A
C2186      H2191   1.085       .  S
C2187      C2188   1.414       .  A
C2187      C2194   1.445       .  S
C2188      C2189   1.405       .  A
C2189      C2190   1.397       .  A
C2189      H2192   1.085       .  S
C2190      C2193   1.445       .  S
C2193      N2195   1.158       .  T
C2194      N2196   1.157       .  T
C2197      C2198   1.406       .  A
C2197      C2202   1.414       .  A
C2198      C2199   1.399       .  A
C2198      H2203   1.085       .  S
C2199      C2200   1.415       .  A
C2199      C2206   1.445       .  S
C2200      C2201   1.405       .  A
C2201      C2202   1.395       .  A
C2201      H2204   1.085       .  S
C2202      C2205   1.445       .  S
C2205      N2207   1.157       .  T
C2206      N2208   1.158       .  T
C2209      C2210   1.407       .  A
C2209      C2214   1.416       .  A
C2210      C2211   1.402       .  A
C2210      H2215   1.084       .  S
C2211      C2212   1.412       .  A
C2211      C2218   1.445       .  S
C2212      C2213   1.402       .  A
C2213      C2214   1.399       .  A
C2213      H2216   1.085       .  S
C2214      C2217   1.443       .  S
C2217      N2219   1.157       .  T
C2218      N2220   1.157       .  T
C2221      C3134   1.406       .  A
C2221      C2226   1.415       .  A
C2222      C3133   1.403       .  A
C2222      C2223   1.400       .  A
C2222      H2227   1.085       .  S
C2223      C3136   1.415       .  A
C2223      C2230   1.444       .  S
C2224      C3000   1.475       .  S
C2224      C3135   1.410       .  A
C2224      C2225   1.403       .  A
C2225      C2226   1.397       .  A
C2225      H2228   1.085       .  S
C2226      C2229   1.445       .  S
C2229      N2231   1.157       .  T
C2230      N2232   1.157       .  T
C2233      C2234   1.407       .  A
C2233      C2238   1.416       .  A
C2234      C2235   1.401       .  A
C2234      H2239   1.085       .  S
C2235      C2236   1.416       .  A
C2235      C2242   1.445       .  S
C2236      C2237   1.405       .  A
C2237      C2238   1.397       .  A
C2237      H2240   1.085       .  S
C2238      C2241   1.445       .  S
C2241      N2243   1.158       .  T
C2242      N2244   1.158       .  T
C2245      C2246   1.405       .  A
C2245      C2250   1.415       .  A
C2246      C2247   1.397       .  A
C2246      H2251   1.085       .  S
C2247      C2248   1.415       .  A
C2247      C2254   1.445       .  S
C2248      C2249   1.406       .  A
C2249      C2250   1.401       .  A
C2249      H2252   1.085       .  S
C2250      C2253   1.445       .  S
C2253      N2255   1.158       .  T
C2254      N2256   1.157       .  T
C2257      C2262   1.414       .  A
C2258      C2259   1.400       .  A
C2258      H2263   1.085       .  S
C2259      C2266   1.445       .  S
C2260      C2261   1.404       .  A
C2261      C2262   1.400       .  A
C2261      H2264   1.084       .  S
C2262      C2265   1.444       .  S
C2265      N2267   1.157       .  T
C2266      N2268   1.157       .  T
C2269      C2270   1.405   1_565  A
C2269      C3186   1.416       .  A
C2270      C2271   1.398       .  A
C2270      H2275   1.084       .  S
C2271      C2272   1.415   1_545  A
C2271      C2278   1.445       .  S
C2272      C3185   1.405       .  A
C2273      C3184   1.407       .  A
C2273      C2274   1.398       .  A
C2273      H2276   1.085       .  S
C2274      C3181   1.415       .  A
C2274      C2277   1.445       .  S
C2277      N2279   1.158       .  T
C2278      N2280   1.157       .  T
C2281      C3194   1.407       .  A
C2281      C2286   1.415   1_565  A
C2282      C3193   1.405       .  A
C2282      C2283   1.398       .  A
C2282      H2287   1.085       .  S
C2283      C3196   1.417       .  A
C2283      C2290   1.445       .  S
C2284      C3195   1.416       .  A
C2284      C2285   1.406   1_565  A
C2285      C2286   1.398       .  A
C2285      H2288   1.085       .  S
C2286      C2289   1.445       .  S
C2289      N2291   1.157       .  T
C2290      N2292   1.158       .  T
C2293      C3210   1.413       .  A
C2294      C2295   1.400       .  A
C2294      H2299   1.084       .  S
C2295      C2302   1.445       .  S
C2296      C3209   1.407       .  A
C2297      C3208   1.404       .  A
C2297      C2298   1.402       .  A
C2297      H2300   1.084       .  S
C2298      C3205   1.415       .  A
C2298      C2301   1.444       .  S
C2301      N2303   1.157       .  T
C2302      N2304   1.157       .  T
C2305      C2306   1.406       .  A
C2305      C2310   1.415       .  A
C2306      C2307   1.400       .  A
C2306      H2311   1.085       .  S
C2307      C2308   1.414       .  A
C2307      C2314   1.445       .  S
C2308      C2309   1.405       .  A
C2309      C2310   1.401       .  A
C2309      H2312   1.085       .  S
C2310      C2313   1.444       .  S
C2313      N2315   1.157       .  T
C2314      N2316   1.157       .  T
C2317      C2318   1.403       .  A
C2317      C3234   1.415       .  A
C2318      C2319   1.399       .  A
C2318      H2323   1.085       .  S
C2319      C2320   1.413       .  A
C2319      C2326   1.445       .  S
C2320      C3233   1.402       .  A
C2321      C3232   1.406   1_545  A
C2321      C2322   1.398       .  A
C2321      H2324   1.084       .  S
C2322      C3229   1.416   1_545  A
C2322      C2325   1.445       .  S
C2325      N2327   1.158       .  T
C2326      N2328   1.157       .  T
C2329      C2330   1.404       .  A
C2329      C2334   1.414       .  A
C2330      C2331   1.399       .  A
C2330      H2335   1.084       .  S
C2331      C2332   1.414       .  A
C2331      C2338   1.445       .  S
C2332      C2333   1.404       .  A
C2333      C2334   1.398       .  A
C2333      H2336   1.085       .  S
C2334      C2337   1.445       .  S
C2337      N2339   1.157       .  T
C2338      N2340   1.157       .  T
C2341      C2342   1.405       .  A
C2341      C2346   1.415       .  A
C2342      C2343   1.398       .  A
C2342      H2347   1.085       .  S
C2343      C2344   1.416       .  A
C2343      C2350   1.445       .  S
C2344      C2345   1.404       .  A
C2345      C2346   1.395       .  A
C2345      H2348   1.085       .  S
C2346      C2349   1.445       .  S
C2349      N2351   1.157       .  T
C2350      N2352   1.157       .  T
C2353      C2358   1.416       .  A
C2354      C2355   1.401       .  A
C2354      H2359   1.084       .  S
C2355      C2362   1.444       .  S
C2356      C2357   1.404       .  A
C2357      C2358   1.398       .  A
C2357      H2360   1.085       .  S
C2358      C2361   1.445       .  S
C2361      N2363   1.157       .  T
C2362      N2364   1.157       .  T
C2365      C2366   1.406       .  A
C2365      C2370   1.416       .  A
C2366      C2367   1.399       .  A
C2366      H2371   1.085       .  S
C2367      C2368   1.415       .  A
C2367      C2374   1.445       .  S
C2368      C2369   1.406       .  A
C2369      C2370   1.399       .  A
C2369      H2372   1.085       .  S
C2370      C2373   1.445       .  S
C2373      N2375   1.158       .  T
C2374      N2376   1.157       .  T
C2377      C2378   1.404       .  A
C2377      C2382   1.412       .  A
C2378      C2379   1.400       .  A
C2378      H2383   1.085       .  S
C2379      C2380   1.414       .  A
C2379      C2386   1.444       .  S
C2380      C2381   1.404       .  A
C2381      C2382   1.395       .  A
C2381      H2384   1.085       .  S
C2382      C2385   1.445       .  S
C2385      N2387   1.157       .  T
C2386      N2388   1.157       .  T
C2389      C2918   1.487       .  S
C2389      C3302   1.405       .  A
C2390      C3301   1.405       .  A
C2390      C2391   1.399       .  A
C2390      H2395   1.085       .  S
C2391      C3304   1.415       .  A
C2391      C2398   1.445       .  S
C2392      C3303   1.415       .  A
C2393      C2394   1.401       .  A
C2393      H2396   1.085       .  S
C2394      C2397   1.445       .  S
C2397      N2399   1.157       .  T
C2398      N2400   1.157       .  T
C2401      C2402   1.405       .  A
C2401      C2406   1.412       .  A
C2402      C2403   1.403   1_554  A
C2402      H2407   1.084       .  S
C2403      C2404   1.415       .  A
C2403      C2410   1.445       .  S
C2404      C2405   1.405       .  A
C2405      C2406   1.398   1_556  A
C2405      H2408   1.084       .  S
C2406      C2409   1.445       .  S
C2409      N2411   1.157       .  T
C2410      N2412   1.158       .  T
C2413      C2414   1.404       .  A
C2413      C2418   1.415       .  A
C2414      C2415   1.397       .  A
C2414      H2419   1.085       .  S
C2415      C2416   1.413       .  A
C2415      C2422   1.445       .  S
C2416      C2417   1.403       .  A
C2417      C2418   1.397       .  A
C2417      H2420   1.085       .  S
C2418      C2421   1.445       .  S
C2421      N2423   1.158       .  T
C2422      N2424   1.157       .  T
C2425      C2426   1.405       .  A
C2425      C2430   1.416       .  A
C2426      C2427   1.397       .  A
C2426      H2431   1.085       .  S
C2427      C2428   1.414       .  A
C2427      C2434   1.445       .  S
C2428      C2429   1.404       .  A
C2429      C2430   1.396       .  A
C2429      H2432   1.085       .  S
C2430      C2433   1.445       .  S
C2433      N2435   1.157       .  T
C2434      N2436   1.158       .  T
C2437      C3350   1.407       .  A
C2437      C2442   1.414       .  A
C2438      C3349   1.407       .  A
C2438      C2439   1.401   1_556  A
C2438      H2443   1.084       .  S
C2439      C2440   1.411       .  A
C2439      C2446   1.444       .  S
C2440      C3353   1.405       .  A
C2441      C3352   1.404       .  A
C2441      C2442   1.399   1_554  A
C2441      H2444   1.085       .  S
C2442      C2445   1.445       .  S
C2445      N2447   1.157       .  T
C2446      N2448   1.157       .  T
C2449      C2450   1.403   1_455  A
C2450      C2451   1.398   1_554  A
C2450      H2455   1.085       .  S
C2451      C2452   1.415   1_655  A
C2451      C2458   1.445       .  S
C2453      C2454   1.403   1_556  A
C2453      H2456   1.084       .  S
C2454      C2457   1.445       .  S
C2457      N2459   1.158       .  T
C2458      N2460   1.157       .  T
C2461      C2462   1.406       .  A
C2462      C2463   1.399       .  A
C2462      H2467   1.085       .  S
C2463      C2464   1.414       .  A
C2463      C2470   1.445       .  S
C2465      C2466   1.395       .  A
C2465      H2468   1.085       .  S
C2466      C2469   1.445       .  S
C2469      N2471   1.157       .  T
C2470      N2472   1.158       .  T
C2473      C2478   1.416       .  A
C2474      C2475   1.397       .  A
C2474      H2479   1.084       .  S
C2475      C2482   1.445       .  S
C2476      C2477   1.403       .  A
C2477      C2478   1.396       .  A
C2477      H2480   1.085       .  S
C2478      C2481   1.445       .  S
C2481      N2483   1.157       .  T
C2482      N2484   1.158       .  T
C2485      C3398   1.408       .  A
C2486      C3397   1.405       .  A
C2486      C2487   1.401   1_556  A
C2486      H2491   1.084       .  S
C2487      C3400   1.415       .  A
C2487      C2494   1.444       .  S
C2488      C3399   1.414       .  A
C2489      C2490   1.400   1_554  A
C2489      H2492   1.084       .  S
C2490      C2493   1.445       .  S
C2493      N2495   1.157       .  T
C2494      N2496   1.157       .  T
C2497      C2498   1.406       .  A
C2497      C2502   1.412       .  A
C2498      C2499   1.404       .  A
C2498      H2503   1.085       .  S
C2499      C2500   1.412       .  A
C2499      C2506   1.442       .  S
C2500      C2501   1.406       .  A
C2501      C2502   1.398       .  A
C2501      H2504   1.085       .  S
C2502      C2505   1.445       .  S
C2505      N2507   1.157       .  T
C2506      N2508   1.157       .  T
C2509      C3422   1.407       .  A
C2509      C2514   1.414   1_565  A
C2510      C3421   1.407       .  A
C2510      C2511   1.400       .  A
C2510      H2515   1.085       .  S
C2511      C3424   1.415       .  A
C2511      C2518   1.444       .  S
C2512      C3423   1.414       .  A
C2512      C2513   1.407   1_565  A
C2513      C2514   1.398       .  A
C2513      H2516   1.085       .  S
C2514      C2517   1.445       .  S
C2517      N2519   1.157       .  T
C2518      N2520   1.157       .  T
C2521      C2526   1.415       .  A
C2522      C2523   1.403       .  A
C2522      H2527   1.085       .  S
C2523      C2530   1.444       .  S
C2524      C2525   1.404       .  A
C2525      C2526   1.395       .  A
C2525      H2528   1.085       .  S
C2526      C2529   1.445       .  S
C2529      N2531   1.157       .  T
C2530      N2532   1.157       .  T
C2533      C2534   1.406       .  A
C2533      C2538   1.416       .  A
C2534      C2535   1.398       .  A
C2534      H2539   1.085       .  S
C2535      C2536   1.415       .  A
C2535      C2542   1.444       .  S
C2536      C2537   1.408       .  A
C2537      C2538   1.400       .  A
C2537      H2540   1.085       .  S
C2538      C2541   1.445       .  S
C2541      N2543   1.158       .  T
C2542      N2544   1.157       .  T
C2545      C2546   1.406       .  A
C2545      C2550   1.418       .  A
C2546      C2547   1.400       .  A
C2546      H2551   1.084       .  S
C2547      C2548   1.415       .  A
C2547      C2554   1.444       .  S
C2548      C2549   1.403       .  A
C2549      C2550   1.397       .  A
C2549      H2552   1.084       .  S
C2550      C2553   1.444       .  S
C2553      N2555   1.157       .  T
C2554      N2556   1.157       .  T
C2557      C2558   1.403   1_565  A
C2558      C2559   1.395       .  A
C2558      H2563   1.085       .  S
C2559      C2560   1.416   1_545  A
C2559      C2566   1.445       .  S
C2561      C2562   1.403       .  A
C2561      H2564   1.085       .  S
C2562      C2565   1.444       .  S
C2565      N2567   1.157       .  T
C2566      N2568   1.157       .  T
C2569      C3482   1.407       .  A
C2569      C2574   1.414   1_565  A
C2570      C3481   1.404       .  A
C2570      C2571   1.398       .  A
C2570      H2575   1.085       .  S
C2571      C3484   1.415       .  A
C2571      C2578   1.443       .  S
C2572      C3483   1.414       .  A
C2572      C2573   1.406   1_565  A
C2573      C2574   1.398       .  A
C2573      H2576   1.085       .  S
C2574      C2577   1.445       .  S
C2577      N2579   1.157       .  T
C2578      N2580   1.156       .  T
C2581      C3494   1.405   1_545  A
C2581      C2586   1.415       .  A
C2582      C3493   1.404       .  A
C2582      C2583   1.396       .  A
C2582      H2587   1.085       .  S
C2583      C3496   1.416       .  A
C2583      C2590   1.445       .  S
C2584      C3495   1.416       .  A
C2584      C2585   1.407   1_565  A
C2585      C2586   1.400       .  A
C2585      H2588   1.085       .  S
C2586      C2589   1.445       .  S
C2589      N2591   1.158       .  T
C2590      N2592   1.157       .  T
C2593      C2594   1.407       .  A
C2593      C2598   1.414       .  A
C2594      C2595   1.401       .  A
C2594      H2599   1.085       .  S
C2595      C2596   1.416       .  A
C2595      C2602   1.445       .  S
C2596      C2597   1.407       .  A
C2597      C2598   1.402       .  A
C2597      H2600   1.085       .  S
C2598      C2601   1.444       .  S
C2601      N2603   1.157       .  T
C2602      N2604   1.158       .  T
C2605      C2606   1.399       .  A
C2605      C2610   1.415       .  A
C2606      C2607   1.401       .  A
C2606      H2611   1.085       .  S
C2607      C2608   1.422       .  A
C2607      C2614   1.445       .  S
C2608      C2609   1.407       .  A
C2609      C2610   1.406       .  A
C2609      H2612   1.084       .  S
C2610      C2613   1.445       .  S
C2613      N2615   1.157       .  T
C2614      N2616   1.157       .  T
C2617      C2618   1.402       .  A
C2617      C2622   1.414       .  A
C2618      C2619   1.395       .  A
C2618      H2623   1.084       .  S
C2619      C2620   1.414       .  A
C2619      C2626   1.445       .  S
C2620      C2621   1.404       .  A
C2621      C2622   1.398       .  A
C2621      H2624   1.085       .  S
C2622      C2625   1.446       .  S
C2625      N2627   1.158       .  T
C2626      N2628   1.157       .  T
C2629      C2630   1.404       .  A
C2629      C2634   1.419       .  A
C2630      C2631   1.399       .  A
C2630      H2635   1.085       .  S
C2631      C2632   1.417       .  A
C2631      C2638   1.445       .  S
C2632      C2633   1.404       .  A
C2633      C2634   1.398       .  A
C2633      H2636   1.085       .  S
C2634      C2637   1.445       .  S
C2637      N2639   1.158       .  T
C2638      N2640   1.157       .  T
C2641      C3554   1.404       .  A
C2641      C2646   1.415       .  A
C2642      C3553   1.406       .  A
C2642      C2643   1.397       .  A
C2642      H2647   1.085       .  S
C2643      C3556   1.415       .  A
C2643      C2650   1.445       .  S
C2644      C3555   1.416       .  A
C2644      C2645   1.408       .  A
C2645      C2646   1.405       .  A
C2645      H2648   1.084       .  S
C2646      C2649   1.444       .  S
C2649      N2651   1.157       .  T
C2650      N2652   1.157       .  T
C2653      C2654   1.401   1_565  A
C2653      C3570   1.411       .  A
C2654      C2655   1.400       .  A
C2654      H2659   1.085       .  S
C2655      C2656   1.418   1_545  A
C2655      C2662   1.444       .  S
C2656      C3569   1.406       .  A
C2657      C3568   1.403       .  A
C2657      C2658   1.399       .  A
C2657      H2660   1.084       .  S
C2658      C3565   1.416       .  A
C2658      C2661   1.445       .  S
C2661      N2663   1.158       .  T
C2662      N2664   1.157       .  T
C2665      C2670   1.416       .  A
C2666      C2667   1.400       .  A
C2666      H2671   1.084       .  S
C2667      C2674   1.445       .  S
C2668      C2669   1.405       .  A
C2669      C2670   1.399       .  A
C2669      H2672   1.085       .  S
C2670      C2673   1.445       .  S
C2673      N2675   1.158       .  T
C2674      N2676   1.157       .  T
C2677      C2682   1.415       .  A
C2678      C2679   1.397       .  A
C2678      H2683   1.084       .  S
C2679      C2686   1.445       .  S
C2680      C2681   1.405       .  A
C2681      C2682   1.402       .  A
C2681      H2684   1.084       .  S
C2682      C2685   1.445       .  S
C2685      N2687   1.157       .  T
C2686      N2688   1.157       .  T
C2689      C2690   1.405   1_455  A
C2690      C2691   1.400       .  A
C2690      H2695   1.086       .  S
C2691      C2698   1.444       .  S
C2692      C2693   1.402       .  A
C2693      C2694   1.394       .  A
C2693      H2696   1.086       .  S
C2694      C2697   1.445       .  S
C2697      N2699   1.157       .  T
C2698      N2700   1.157       .  T
C2701      C2706   1.414       .  A
C2702      C2703   1.398       .  A
C2702      H2707   1.085       .  S
C2703      C2704   1.413   1_655  A
C2703      C2710   1.445       .  S
C2705      C2706   1.400       .  A
C2705      H2708   1.085       .  S
C2706      C2709   1.445       .  S
C2709      N2711   1.158       .  T
C2710      N2712   1.157       .  T
C2713      C3626   1.406       .  A
C2714      C3625   1.410       .  A
C2714      C2715   1.407       .  A
C2714      H2719   1.085       .  S
C2715      C3628   1.415       .  A
C2715      C2722   1.444       .  S
C2716      C2750   1.484       .  S
C2716      C3627   1.413       .  A
C2717      C2718   1.398       .  A
C2717      H2720   1.085       .  S
C2718      C2721   1.445       .  S
C2721      N2723   1.158       .  T
C2722      N2724   1.157       .  T
C2725      C2730   1.415       .  A
C2726      C2727   1.398       .  A
C2726      H2731   1.085       .  S
C2727      C2734   1.445       .  S
C2728      C2729   1.405       .  A
C2729      C2730   1.404       .  A
C2729      H2732   1.084       .  S
C2730      C2733   1.444       .  S
C2733      N2735   1.157       .  T
C2734      N2736   1.157       .  T
O2738      V2745   1.886       .  S
O2739      V2745   1.900       .  S
O2739      C2749   1.265       .  A
O2740      V2745   1.901       .  S
O2740      C2750   1.265       .  A
O2741      V2746   1.886       .  S
O2742      V2746   1.888       .  S
O2743      C2748   1.266   1_655  A
O2744      V2746   1.895   1_565  S
O2744      C2747   1.265   1_655  A
C2747      C3601   1.480       .  S
C2748      C3616   1.479       .  S
C2749      C3640   1.478       .  S
O2751      V2759   1.895       .  S
O2751      C2761   1.265       .  A
O2752      V2759   1.895       .  S
O2752      C2762   1.264       .  A
O2753      V2759   1.898       .  S
O2753      C2763   1.264       .  A
O2754      V2759   1.898       .  S
O2754      C2764   1.264       .  A
O2755      V2760   1.890       .  S
O2756      V2760   1.890       .  S
O2757      V2760   1.889       .  S
O2758      V2760   1.890       .  S
C2761      C3604   1.484       .  S
C2762      C3613   1.478       .  S
C2763      C3577   1.490       .  S
C2764      C3589   1.478       .  S
O2765      C2775   1.262       .  A
O2766      V2773   1.889       .  S
O2766      C2776   1.261       .  A
O2767      V2773   1.898       .  S
O2767      C2777   1.264       .  A
O2768      V2773   1.896       .  S
O2768      C2778   1.264       .  A
O2769      V2774   1.904       .  S
O2770      V2774   1.899       .  S
O2771      C2776   1.266       .  A
O2772      V2774   1.897       .  S
O2772      C2775   1.265       .  A
C2775      C3532   1.478       .  S
C2776      C3544   1.483       .  S
C2777      C3568   1.479       .  S
C2778      C3556   1.489       .  S
O2779      V2787   1.886       .  S
O2779      C2789   1.260       .  A
O2780      V2787   1.888       .  S
O2780      C2790   1.261       .  A
O2781      V2787   1.910       .  S
O2781      C2791   1.268       .  A
O2782      V2787   1.911       .  S
O2782      C2792   1.268       .  A
O2783      V2788   1.893       .  S
O2783      C2792   1.263       .  A
O2784      V2788   1.892       .  S
O2784      C2791   1.262       .  A
O2785      V2788   1.901       .  S
O2785      C2790   1.266       .  A
O2786      V2788   1.898       .  S
O2786      C2789   1.266       .  A
V2787      V2788   2.084       .  T
C2789      C3529   1.478       .  S
C2790      C3541   1.485       .  S
C2791      C3517   1.489       .  S
C2792      C3505   1.491       .  S
O2794      V2801   1.892       .  S
O2795      V2801   1.905       .  S
O2796      V2801   1.907       .  S
O2797      V2802   1.892       .  S
O2797      C2806   1.265       .  A
O2798      V2802   1.894       .  S
O2798      C2805   1.263       .  A
O2799      C2804   1.264       .  A
O2800      V2802   1.894       .  S
O2800      C2803   1.263       .  A
C2803      C3493   1.484       .  S
C2804      C3481   1.481       .  S
C2805      C3637   1.477       .  S
C2806      C3469   1.488       .  S
O2807      C2817   1.262       .  A
O2808      V2815   1.890   1_655  S
O2808      C2818   1.263       .  A
O2809      V2815   1.892       .  S
O2810      V2815   1.895       .  S
O2811      V2816   1.896       .  S
O2811      C2820   1.263       .  A
O2812      V2816   1.897       .  S
O2812      C2819   1.264       .  A
O2813      C2818   1.266       .  A
O2814      V2816   1.902       .  S
O2814      C2817   1.266       .  A
C2817      C3460   1.483       .  S
C2818      C3445   1.488       .  S
C2819      C3592   1.482       .  S
C2820      C3436   1.479       .  S
O2821      V2829   1.900       .  S
O2821      C2831   1.265       .  A
O2822      V2829   1.900       .  S
O2822      C2832   1.265       .  A
O2823      V2829   1.896       .  S
O2823      C2833   1.265       .  A
O2824      V2829   1.895       .  S
O2824      C2834   1.265       .  A
O2825      V2830   1.898       .  S
O2826      V2830   1.894       .  S
O2827      V2830   1.891       .  S
O2828      V2830   1.891       .  S
C2831      C3421   1.489       .  S
C2832      C3565   1.483       .  S
C2833      C3496   1.486       .  S
C2834      C3484   1.483       .  S
O2835      V2843   1.902       .  S
O2835      C2845   1.266       .  A
O2836      V2843   1.898       .  S
O2836      C2846   1.265       .  A
O2837      V2843   1.890       .  S
O2837      C2847   1.261       .  A
O2838      V2843   1.884       .  S
O2838      C2848   1.263       .  A
O2839      V2844   1.911       .  S
O2839      C2848   1.267       .  A
O2840      V2844   1.912       .  S
O2840      C2847   1.268       .  A
O2841      V2844   1.893       .  S
O2841      C2846   1.263       .  A
O2842      V2844   1.894       .  S
O2842      C2845   1.264       .  A
V2843      V2844   2.085       .  T
C2845      C3448   1.488       .  S
C2846      C3457   1.481       .  S
C2847      C3520   1.482       .  S
C2848      C3412   1.488       .  S
O2849      C2859   1.262       .  A
O2850      V2857   1.889       .  S
O2850      C2860   1.262       .  A
O2851      V2857   1.905       .  S
O2852      V2857   1.908       .  S
O2853      V2858   1.896       .  S
O2854      V2858   1.891       .  S
O2856      V2858   1.895       .  S
C2859      C3373   1.478       .  S
C2860      C3385   1.480       .  S
C2861      C3625   1.492       .  S
C2862      C3400   1.488       .  S
O2863      V2871   1.890       .  S
O2864      V2871   1.889       .  S
O2865      V2871   1.897       .  S
O2865      C2875   1.265   1_655  A
O2866      V2871   1.895       .  S
O2866      C2876   1.264   1_655  A
O2867      V2872   1.898       .  S
O2868      V2872   1.898       .  S
O2869      V2872   1.900       .  S
O2869      C2874   1.265       .  A
O2870      V2872   1.897       .  S
O2870      C2873   1.265       .  A
C2873      C3388   1.479       .  S
C2874      C3376   1.478       .  S
C2875      C3361   1.479       .  S
O2877      V2885   1.905       .  S
O2878      V2885   1.907       .  S
O2879      C2889   1.261       .  A
O2880      V2885   1.893       .  S
O2880      C2890   1.263       .  A
O2881      C2890   1.264       .  A
O2882      V2886   1.894       .  S
O2882      C2889   1.265       .  A
O2883      V2886   1.889       .  S
O2883      C2888   1.263       .  A
O2884      V2886   1.891       .  S
O2884      C2887   1.262       .  A
C2887      C3352   1.480       .  S
C2888      C3553   1.489       .  S
C2889      C3337   1.480       .  S
C2890      C3325   1.482       .  S
O2891      V2899   1.901       .  S
O2891      C2901   1.265       .  A
O2892      V2899   1.902       .  S
O2892      C2902   1.265       .  A
O2893      V2899   1.895       .  S
O2893      C2903   1.264       .  A
O2894      V2899   1.895       .  S
O2894      C2904   1.265       .  A
O2895      V2900   1.887       .  S
O2895      C2904   1.261       .  A
O2896      V2900   1.889       .  S
O2896      C2903   1.262       .  A
O2897      V2900   1.900       .  S
O2897      C2902   1.265       .  A
O2898      V2900   1.900       .  S
O2898      C2901   1.264       .  A
V2899      V2900   2.085       .  T
C2901      C3313   1.482       .  S
C2902      C3508   1.490       .  S
C2903      C3328   1.482       .  S
C2904      C3340   1.480       .  S
O2905      C2915   1.263       .  A
O2906      C2916   1.264       .  A
O2907      V2913   1.897       .  S
O2908      V2913   1.898       .  S
O2909      V2914   1.902       .  S
O2909      C2918   1.266       .  A
O2910      V2914   1.900       .  S
O2910      C2917   1.265       .  A
O2911      C2916   1.264       .  A
O2912      C2915   1.264       .  A
C2915      C3289   1.478       .  S
C2916      C3280   1.478       .  S
C2917      C3397   1.485       .  S
O2919      V2927   1.892       .  S
O2919      C2929   1.263       .  A
O2920      V2927   1.891       .  S
O2920      C2930   1.262       .  A
O2921      V2927   1.893       .  S
O2921      C2931   1.264       .  A
O2922      C2932   1.264       .  A
O2923      V2928   1.890       .  S
O2923      C2932   1.262       .  A
O2924      C2931   1.263       .  A
O2925      V2928   1.904       .  S
O2926      V2928   1.902       .  S
C2929      C3364   1.483       .  S
C2931      C3244   1.477       .  S
C2932      C3253   1.473       .  S
O2933      V2941   1.896       .  S
O2933      C2943   1.264       .  A
O2934      C2944   1.264       .  A
O2935      V2941   1.895       .  S
O2935      C2945   1.264       .  A
O2936      V2941   1.897       .  S
O2936      C2946   1.264       .  A
O2937      V2942   1.896       .  S
O2938      V2942   1.900       .  S
O2939      V2942   1.891       .  S
O2939      C2944   1.263       .  A
O2940      C2943   1.262       .  A
C2943      C3256   1.474       .  S
C2944      C3241   1.479       .  S
C2945      C3349   1.480       .  S
C2946      C3232   1.487       .  S
O2947      V2955   1.897       .  S
O2947      C2957   1.264       .  A
O2948      V2955   1.895       .  S
O2948      C2958   1.263       .  A
O2949      V2955   1.900       .  S
O2949      C2959   1.265       .  A
O2950      V2955   1.898       .  S
O2950      C2960   1.264       .  A
O2951      V2956   1.899       .  S
O2951      C2960   1.266       .  A
O2952      V2956   1.901       .  S
O2952      C2959   1.265       .  A
O2953      V2956   1.891       .  S
O2953      C2958   1.263       .  A
O2954      V2956   1.892       .  S
O2954      C2957   1.263       .  A
V2955      V2956   2.085       .  T
C2957      C3277   1.476       .  S
C2958      C3292   1.479       .  S
C2959      C3316   1.486       .  S
C2960      C3217   1.490       .  S
O2961      V2969   1.889       .  S
O2961      C2971   1.262       .  A
O2962      V2969   1.893       .  S
O2962      C2972   1.263       .  A
O2963      V2969   1.896       .  S
O2963      C2973   1.265       .  A
O2964      C2974   1.265       .  A
O2965      V2970   1.893       .  S
O2967      V2970   1.905       .  S
O2968      V2970   1.908       .  S
C2971      C3472   1.488       .  S
C2972      C3205   1.489       .  S
C2973      C3196   1.484       .  S
C2974      C3184   1.486       .  S
O2975      V2983   1.897   1_655  S
O2975      C2985   1.264       .  A
O2976      C2986   1.266       .  A
O2977      V2983   1.893       .  S
O2978      V2983   1.893       .  S
O2979      V2984   1.901       .  S
O2979      C2988   1.265       .  A
O2980      V2984   1.901       .  S
O2980      C2987   1.265       .  A
O2981      V2984   1.889       .  S
O2981      C2986   1.262       .  A
O2982      C2985   1.263       .  A
C2985      C3148   1.486       .  S
C2986      C3157   1.487       .  S
C2987      C3169   1.483       .  S
C2988      C3433   1.480       .  S
O2989      V2997   1.892       .  S
O2989      C2999   1.264       .  A
O2990      V2997   1.890       .  S
O2990      C3000   1.262       .  A
O2991      V2997   1.893       .  S
O2991      C3001   1.264       .  A
O2992      V2997   1.890       .  S
O2992      C3002   1.262       .  A
O2993      V2998   1.893       .  S
O2994      V2998   1.891       .  S
O2995      V2998   1.900       .  S
O2996      V2998   1.899       .  S
C2999      C3424   1.489       .  S
C3001      C3181   1.485       .  S
C3002      C3193   1.484       .  S
O3003      V3011   1.891       .  S
O3003      C3013   1.262       .  A
O3004      V3011   1.888       .  S
O3004      C3014   1.263       .  A
O3005      V3011   1.893       .  S
O3005      C3015   1.264       .  A
O3006      V3011   1.889       .  S
O3006      C3016   1.263       .  A
O3007      V3012   1.906       .  S
O3007      C3016   1.265       .  A
O3008      V3012   1.901       .  S
O3008      C3015   1.265       .  A
O3009      V3012   1.903       .  S
O3009      C3014   1.265       .  A
O3010      V3012   1.898       .  S
O3010      C3013   1.266       .  A
V3011      V3012   2.083       .  T
C3013      C3160   1.486       .  S
C3014      C3145   1.487       .  S
C3015      C3121   1.487       .  S
C3016      C3409   1.487       .  S
O3017      C3027   1.262       .  A
O3018      C3028   1.264       .  A
O3019      V3025   1.897       .  S
O3020      V3025   1.898       .  S
O3021      V3026   1.902       .  S
O3022      V3026   1.903       .  S
O3023      C3028   1.263       .  A
O3024      C3027   1.264       .  A
C3027      C3100   1.482       .  S
C3028      C3109   1.484       .  S
C3029      C3304   1.490       .  S
C3030      C3208   1.481       .  S
O3031      V3039   1.892       .  S
O3031      C3041   1.262       .  A
O3032      C3042   1.261       .  A
O3033      V3039   1.902       .  S
O3034      V3039   1.901       .  S
O3035      V3040   1.897       .  S
O3035      C3044   1.263       .  A
O3036      V3040   1.895       .  S
O3036      C3043   1.263       .  A
O3037      V3040   1.902       .  S
O3037      C3042   1.267       .  A
O3038      C3041   1.267       .  A
C3041      C3073   1.485       .  S
C3042      C3085   1.483       .  S
C3043      C3172   1.480       .  S
C3044      C3268   1.489       .  S
O3045      C3055   1.266       .  A
O3046      V3053   1.904       .  S
O3046      C3056   1.266       .  A
O3047      V3053   1.892       .  S
O3048      V3053   1.892       .  S
O3049      V3054   1.897       .  S
O3049      C3058   1.266       .  A
O3050      V3054   1.897       .  S
O3050      C3057   1.264       .  A
O3051      C3056   1.262       .  A
O3052      V3054   1.890       .  S
O3052      C3055   1.262       .  A
C3055      C3088   1.485       .  S
C3056      C3076   1.484       .  S
C3057      C3133   1.475       .  S
C3058      C3229   1.486       .  S
O3059      V3067   1.895       .  S
O3059      C3069   1.264       .  A
O3060      V3067   1.895       .  S
O3060      C3070   1.263       .  A
O3061      V3067   1.888       .  S
O3061      C3071   1.263       .  A
O3062      V3067   1.888       .  S
O3062      C3072   1.263       .  A
O3063      V3068   1.899       .  S
O3063      C3072   1.265       .  A
O3064      V3068   1.897       .  S
O3064      C3071   1.264       .  A
O3065      V3068   1.899       .  S
O3065      C3070   1.264       .  A
O3066      V3068   1.899       .  S
O3066      C3069   1.266       .  A
V3067      V3068   2.084       .  T
C3069      C3220   1.490       .  S
C3070      C3124   1.474       .  S
C3071      C3097   1.481       .  S
C3072      C3112   1.484       .  S
C3073      C3074   1.403       .  A
C3073      C3078   1.417       .  A
C3074      C3075   1.399       .  A
C3074      H3079   1.084       .  S
C3075      C3076   1.416       .  A
C3075      C3082   1.445       .  S
C3076      C3077   1.404       .  A
C3077      C3078   1.401       .  A
C3077      H3080   1.084       .  S
C3078      C3081   1.445       .  S
C3081      N3083   1.157       .  T
C3082      N3084   1.157       .  T
C3085      C3086   1.403       .  A
C3085      C3090   1.417       .  A
C3086      C3087   1.398       .  A
C3086      H3091   1.085       .  S
C3087      C3088   1.417       .  A
C3087      C3094   1.445       .  S
C3088      C3089   1.405       .  A
C3089      C3090   1.399       .  A
C3089      H3092   1.085       .  S
C3090      C3093   1.445       .  S
C3093      N3095   1.158       .  T
C3094      N3096   1.157       .  T
C3097      C3098   1.405       .  A
C3097      C3102   1.415       .  A
C3098      C3099   1.394       .  A
C3098      H3103   1.085       .  S
C3099      C3100   1.415       .  A
C3099      C3106   1.445       .  S
C3100      C3101   1.406       .  A
C3101      C3102   1.398       .  A
C3101      H3104   1.085       .  S
C3102      C3105   1.445       .  S
C3105      N3107   1.157       .  T
C3106      N3108   1.158       .  T
C3109      C3110   1.406       .  A
C3109      C3114   1.414       .  A
C3110      C3111   1.397       .  A
C3110      H3115   1.085       .  S
C3111      C3112   1.414       .  A
C3111      C3118   1.445       .  S
C3112      C3113   1.407       .  A
C3113      C3114   1.398       .  A
C3113      H3116   1.085       .  S
C3114      C3117   1.445       .  S
C3117      N3119   1.158       .  T
C3118      N3120   1.157       .  T
C3121      C3122   1.409       .  A
C3121      C3126   1.417       .  A
C3122      C3123   1.399       .  A
C3122      H3127   1.084       .  S
C3123      C3124   1.408       .  A
C3123      C3130   1.445       .  S
C3124      C3125   1.402       .  A
C3125      C3126   1.401       .  A
C3125      H3128   1.085       .  S
C3126      C3129   1.445       .  S
C3129      N3131   1.158       .  T
C3130      N3132   1.157       .  T
C3133      C3138   1.410   1_565  A
C3134      C3135   1.399       .  A
C3134      H3139   1.084       .  S
C3135      C3142   1.443       .  S
C3136      C3137   1.406   1_565  A
C3137      C3138   1.398       .  A
C3137      H3140   1.084       .  S
C3138      C3141   1.445       .  S
C3141      N3143   1.157       .  T
C3142      N3144   1.157       .  T
C3145      C3146   1.407       .  A
C3145      C3150   1.415       .  A
C3146      C3147   1.396       .  A
C3146      H3151   1.085       .  S
C3147      C3148   1.414       .  A
C3147      C3154   1.445       .  S
C3148      C3149   1.408       .  A
C3149      C3150   1.400       .  A
C3149      H3152   1.085       .  S
C3150      C3153   1.445       .  S
C3153      N3155   1.158       .  T
C3154      N3156   1.157       .  T
C3157      C3158   1.405       .  A
C3157      C3162   1.418       .  A
C3158      C3159   1.400       .  A
C3158      H3163   1.085       .  S
C3159      C3160   1.418       .  A
C3159      C3166   1.445       .  S
C3160      C3161   1.403       .  A
C3161      C3162   1.397       .  A
C3161      H3164   1.085       .  S
C3162      C3165   1.445       .  S
C3165      N3167   1.157       .  T
C3166      N3168   1.158       .  T
C3169      C3174   1.415       .  A
C3170      C3171   1.398       .  A
C3170      H3175   1.084       .  S
C3171      C3178   1.445       .  S
C3172      C3173   1.404       .  A
C3173      C3174   1.400       .  A
C3173      H3176   1.084       .  S
C3174      C3177   1.444       .  S
C3177      N3179   1.157       .  T
C3178      N3180   1.157   1_455  T
C3181      C3182   1.406       .  A
C3182      C3183   1.398       .  A
C3182      H3187   1.084       .  S
C3183      C3184   1.415       .  A
C3183      C3190   1.445       .  S
C3185      C3186   1.397       .  A
C3185      H3188   1.085       .  S
C3186      C3189   1.445       .  S
C3189      N3191   1.158       .  T
C3190      N3192   1.157       .  T
C3193      C3198   1.416       .  A
C3194      C3195   1.399       .  A
C3194      H3199   1.085       .  S
C3195      C3202   1.445       .  S
C3196      C3197   1.405       .  A
C3197      C3198   1.397       .  A
C3197      H3200   1.085       .  S
C3198      C3201   1.445       .  S
C3201      N3203   1.157       .  T
C3202      N3204   1.158       .  T
C3206      C3207   1.399       .  A
C3206      H3211   1.085       .  S
C3207      C3214   1.445       .  S
C3209      C3210   1.403       .  A
C3209      H3212   1.084       .  S
C3210      C3213   1.444       .  S
C3213      N3215   1.157       .  T
C3214      N3216   1.157       .  T
C3217      C3218   1.406       .  A
C3217      C3222   1.417       .  A
C3218      C3219   1.399       .  A
C3218      H3223   1.085       .  S
C3219      C3220   1.417       .  A
C3219      C3226   1.445       .  S
C3220      C3221   1.406       .  A
C3221      C3222   1.401       .  A
C3221      H3224   1.085       .  S
C3222      C3225   1.445       .  S
C3225      N3227   1.157       .  T
C3226      N3228   1.157       .  T
C3229      C3230   1.406       .  A
C3230      C3231   1.399       .  A
C3230      H3235   1.084       .  S
C3231      C3232   1.416       .  A
C3231      C3238   1.445       .  S
C3233      C3234   1.398       .  A
C3233      H3236   1.085       .  S
C3234      C3237   1.445       .  S
C3237      N3239   1.157       .  T
C3238      N3240   1.157       .  T
C3241      C3242   1.405       .  A
C3241      C3246   1.414       .  A
C3242      C3243   1.397       .  A
C3242      H3247   1.085       .  S
C3243      C3244   1.414       .  A
C3243      C3250   1.446       .  S
C3244      C3245   1.403       .  A
C3245      C3246   1.396       .  A
C3245      H3248   1.084       .  S
C3246      C3249   1.444       .  S
C3249      N3251   1.157       .  T
C3250      N3252   1.158       .  T
C3253      C3254   1.402       .  A
C3253      C3258   1.413       .  A
C3254      C3255   1.397       .  A
C3254      H3259   1.085       .  S
C3255      C3256   1.413       .  A
C3255      C3262   1.445       .  S
C3256      C3257   1.403       .  A
C3257      C3258   1.398       .  A
C3257      H3260   1.085       .  S
C3258      C3261   1.445       .  S
C3261      N3263   1.157       .  T
C3262      N3264   1.157       .  T
C3265      C3270   1.417       .  A
C3266      C3267   1.400       .  A
C3266      H3271   1.084       .  S
C3267      C3274   1.445       .  S
C3268      C3269   1.405       .  A
C3269      C3270   1.399       .  A
C3269      H3272   1.085       .  S
C3270      C3273   1.445       .  S
C3273      N3275   1.157       .  T
C3274      N3276   1.158       .  T
C3277      C3278   1.404       .  A
C3277      C3282   1.412       .  A
C3278      C3279   1.399       .  A
C3278      H3283   1.085       .  S
C3279      C3280   1.413       .  A
C3279      C3286   1.445       .  S
C3280      C3281   1.404       .  A
C3281      C3282   1.398       .  A
C3281      H3284   1.085       .  S
C3282      C3285   1.445       .  S
C3285      N3287   1.157       .  T
C3286      N3288   1.157       .  T
C3289      C3290   1.404       .  A
C3289      C3294   1.413       .  A
C3290      C3291   1.397       .  A
C3290      H3295   1.085       .  S
C3291      C3292   1.414       .  A
C3291      C3298   1.444       .  S
C3292      C3293   1.405       .  A
C3293      C3294   1.397       .  A
C3293      H3296   1.085       .  S
C3294      C3297   1.445       .  S
C3297      N3299   1.157       .  T
C3298      N3300   1.157       .  T
C3302      C3303   1.401       .  A
C3302      H3307   1.085       .  S
C3303      C3310   1.445   1_565  S
C3305      C3306   1.402       .  A
C3305      H3308   1.085       .  S
C3306      C3309   1.444       .  S
C3309      N3311   1.157       .  T
C3310      N3312   1.157       .  T
C3313      C3314   1.403       .  A
C3313      C3318   1.413       .  A
C3314      C3315   1.401   1_554  A
C3314      H3319   1.084       .  S
C3315      C3316   1.416       .  A
C3315      C3322   1.444       .  S
C3316      C3317   1.406       .  A
C3317      C3318   1.402   1_556  A
C3317      H3320   1.084       .  S
C3318      C3321   1.444       .  S
C3321      N3323   1.157       .  T
C3322      N3324   1.157       .  T
C3325      C3326   1.404       .  A
C3325      C3330   1.416       .  A
C3326      C3327   1.396       .  A
C3326      H3331   1.085       .  S
C3327      C3328   1.415       .  A
C3327      C3334   1.445       .  S
C3328      C3329   1.405       .  A
C3329      C3330   1.398       .  A
C3329      H3332   1.085       .  S
C3330      C3333   1.445       .  S
C3333      N3335   1.158       .  T
C3334      N3336   1.157       .  T
C3337      C3338   1.404       .  A
C3337      C3342   1.416       .  A
C3338      C3339   1.396       .  A
C3338      H3343   1.085       .  S
C3339      C3340   1.416       .  A
C3339      C3346   1.445       .  S
C3340      C3341   1.404       .  A
C3341      C3342   1.396       .  A
C3341      H3344   1.085       .  S
C3342      C3345   1.445       .  S
C3345      N3347   1.158       .  T
C3346      N3348   1.157       .  T
C3349      C3354   1.413       .  A
C3350      C3351   1.402   1_556  A
C3350      H3355   1.084       .  S
C3351      C3352   1.411       .  A
C3351      C3358   1.444       .  S
C3353      C3354   1.398   1_554  A
C3353      H3356   1.085       .  S
C3354      C3357   1.445       .  S
C3357      N3359   1.157       .  T
C3358      N3360   1.157       .  T
C3361      C3362   1.402   1_455  A
C3362      C3363   1.398   1_554  A
C3362      H3367   1.085       .  S
C3363      C3364   1.415       .  A
C3363      C3370   1.445       .  S
C3365      C3366   1.401   1_556  A
C3365      H3368   1.084       .  S
C3366      C3369   1.445       .  S
C3369      N3371   1.157       .  T
C3370      N3372   1.157       .  T
C3373      C3374   1.406       .  A
C3374      C3375   1.399       .  A
C3374      H3379   1.085       .  S
C3375      C3376   1.413       .  A
C3375      C3382   1.445       .  S
C3377      C3378   1.396       .  A
C3377      H3380   1.085       .  S
C3378      C3381   1.445       .  S
C3381      N3383   1.157       .  T
C3382      N3384   1.158       .  T
C3385      C3390   1.415       .  A
C3386      C3387   1.398       .  A
C3386      H3391   1.085       .  S
C3387      C3394   1.445       .  S
C3388      C3389   1.404       .  A
C3389      C3390   1.397       .  A
C3389      H3392   1.085       .  S
C3390      C3393   1.445       .  S
C3393      N3395   1.157       .  T
C3394      N3396   1.157       .  T
C3398      C3399   1.405   1_556  A
C3398      H3403   1.084       .  S
C3399      C3406   1.444       .  S
C3401      C3402   1.401   1_554  A
C3401      H3404   1.084       .  S
C3402      C3405   1.445       .  S
C3405      N3407   1.157       .  T
C3406      N3408   1.157       .  T
C3409      C3410   1.409       .  A
C3409      C3414   1.415       .  A
C3410      C3411   1.407       .  A
C3410      H3415   1.085       .  S
C3411      C3412   1.415       .  A
C3411      C3418   1.444       .  S
C3412      C3413   1.405       .  A
C3413      C3414   1.393       .  A
C3413      H3416   1.085       .  S
C3414      C3417   1.446       .  S
C3417      N3419   1.157       .  T
C3418      N3420   1.158       .  T
C3421      C3426   1.415       .  A
C3422      C3423   1.399       .  A
C3422      H3427   1.085       .  S
C3423      C3430   1.445       .  S
C3424      C3425   1.407       .  A
C3425      C3426   1.399       .  A
C3425      H3428   1.085       .  S
C3426      C3429   1.445       .  S
C3429      N3431   1.157       .  T
C3430      N3432   1.158       .  T
C3433      C3438   1.414       .  A
C3434      C3435   1.401       .  A
C3434      H3439   1.084       .  S
C3435      C3442   1.444       .  S
C3436      C3437   1.403       .  A
C3437      C3438   1.398       .  A
C3437      H3440   1.085       .  S
C3438      C3441   1.445       .  S
C3441      N3443   1.157       .  T
C3442      N3444   1.157       .  T
C3445      C3446   1.407       .  A
C3445      C3450   1.414       .  A
C3446      C3447   1.399       .  A
C3446      H3451   1.085       .  S
C3447      C3448   1.414       .  A
C3447      C3454   1.445       .  S
C3448      C3449   1.408       .  A
C3449      C3450   1.402       .  A
C3449      H3452   1.085       .  S
C3450      C3453   1.445       .  S
C3453      N3455   1.158       .  T
C3454      N3456   1.157       .  T
C3457      C3458   1.403       .  A
C3457      C3462   1.415       .  A
C3458      C3459   1.398       .  A
C3458      H3463   1.084       .  S
C3459      C3460   1.416       .  A
C3459      C3466   1.445       .  S
C3460      C3461   1.405       .  A
C3461      C3462   1.400       .  A
C3461      H3464   1.084       .  S
C3462      C3465   1.445       .  S
C3465      N3467   1.158       .  T
C3466      N3468   1.157       .  T
C3469      C3470   1.404       .  A
C3470      C3471   1.395       .  A
C3470      H3475   1.085       .  S
C3471      C3472   1.416       .  A
C3471      C3478   1.445       .  S
C3473      C3474   1.406       .  A
C3473      H3476   1.084       .  S
C3474      C3477   1.444       .  S
C3477      N3479   1.157       .  T
C3478      N3480   1.157       .  T
C3481      C3486   1.413       .  A
C3482      C3483   1.399       .  A
C3482      H3487   1.085       .  S
C3483      C3490   1.445       .  S
C3484      C3485   1.405       .  A
C3485      C3486   1.398       .  A
C3485      H3488   1.085       .  S
C3486      C3489   1.444       .  S
C3489      N3491   1.157       .  T
C3490      N3492   1.158       .  T
C3493      C3498   1.416       .  A
C3494      C3495   1.397       .  A
C3494      H3499   1.085       .  S
C3495      C3502   1.445       .  S
C3496      C3497   1.406       .  A
C3497      C3498   1.399       .  A
C3497      H3500   1.085       .  S
C3498      C3501   1.445       .  S
C3501      N3503   1.158       .  T
C3502      N3504   1.158       .  T
C3505      C3506   1.407       .  A
C3505      C3510   1.415       .  A
C3506      C3507   1.401       .  A
C3506      H3511   1.085       .  S
C3507      C3508   1.415       .  A
C3507      C3514   1.445       .  S
C3508      C3509   1.407       .  A
C3509      C3510   1.404       .  A
C3509      H3512   1.085       .  S
C3510      C3513   1.444       .  S
C3513      N3515   1.157       .  T
C3514      N3516   1.158       .  T
C3517      C3518   1.405       .  A
C3517      C3522   1.419       .  A
C3518      C3519   1.402       .  A
C3518      H3523   1.084       .  S
C3519      C3520   1.415       .  A
C3519      C3526   1.445       .  S
C3520      C3521   1.400       .  A
C3521      C3522   1.401       .  A
C3521      H3524   1.084       .  S
C3522      C3525   1.444       .  S
C3525      N3527   1.157       .  T
C3526      N3528   1.157       .  T
C3529      C3530   1.402       .  A
C3529      C3534   1.416       .  A
C3530      C3531   1.397       .  A
C3530      H3535   1.084       .  S
C3531      C3532   1.415       .  A
C3531      C3538   1.444       .  S
C3532      C3533   1.403       .  A
C3533      C3534   1.398       .  A
C3533      H3536   1.085       .  S
C3534      C3537   1.445       .  S
C3537      N3539   1.157       .  T
C3538      N3540   1.157       .  T
C3541      C3542   1.405       .  A
C3541      C3546   1.417       .  A
C3542      C3543   1.399       .  A
C3542      H3547   1.085       .  S
C3543      C3544   1.417       .  A
C3543      C3550   1.445       .  S
C3544      C3545   1.403       .  A
C3545      C3546   1.397       .  A
C3545      H3548   1.085       .  S
C3546      C3549   1.445       .  S
C3549      N3551   1.158       .  T
C3550      N3552   1.158       .  T
C3553      C3558   1.415       .  A
C3554      C3555   1.396       .  A
C3554      H3559   1.085       .  S
C3555      C3562   1.445   1_565  S
C3556      C3557   1.408       .  A
C3557      C3558   1.403       .  A
C3557      H3560   1.085       .  S
C3558      C3561   1.444       .  S
C3561      N3563   1.157       .  T
C3562      N3564   1.157       .  T
C3565      C3566   1.406       .  A
C3566      C3567   1.400       .  A
C3566      H3571   1.084       .  S
C3567      C3568   1.412       .  A
C3567      C3574   1.444       .  S
C3569      C3570   1.398       .  A
C3569      H3572   1.084       .  S
C3570      C3573   1.445       .  S
C3573      N3575   1.157       .  T
C3574      N3576   1.157       .  T
C3577      C3582   1.417       .  A
C3578      C3579   1.396       .  A
C3578      H3583   1.085       .  S
C3579      C3586   1.445       .  S
C3580      C3581   1.407       .  A
C3581      C3582   1.401       .  A
C3581      H3584   1.084       .  S
C3582      C3585   1.445       .  S
C3585      N3587   1.158       .  T
C3586      N3588   1.157       .  T
C3589      C3594   1.412       .  A
C3590      C3591   1.395       .  A
C3590      H3595   1.085       .  S
C3591      C3598   1.445       .  S
C3592      C3593   1.406       .  A
C3593      C3594   1.401       .  A
C3593      H3596   1.084       .  S
C3594      C3597   1.445       .  S
C3597      N3599   1.157       .  T
C3598      N3600   1.157       .  T
C3601      C3602   1.403   1_455  A
C3602      C3603   1.396       .  A
C3602      H3607   1.086       .  S
C3603      C3610   1.445       .  S
C3604      C3605   1.405       .  A
C3605      C3606   1.397       .  A
C3605      H3608   1.086       .  S
C3606      C3609   1.445       .  S
C3609      N3611   1.158       .  T
C3610      N3612   1.157       .  T
C3613      C3618   1.413       .  A
C3614      C3615   1.399       .  A
C3614      H3619   1.085       .  S
C3615      C3616   1.412   1_655  A
C3615      C3622   1.444       .  S
C3617      C3618   1.396       .  A
C3617      H3620   1.085       .  S
C3618      C3621   1.445       .  S
C3621      N3623   1.157       .  T
C3622      N3624   1.157       .  T
C3626      C3627   1.402       .  A
C3626      H3631   1.085       .  S
C3627      C3634   1.444       .  S
C3629      C3630   1.395       .  A
C3629      H3632   1.085       .  S
C3630      C3633   1.446       .  S
C3633      N3635   1.158       .  T
C3634      N3636   1.157       .  T
C3637      C3642   1.414       .  A
C3638      C3639   1.400       .  A
C3638      H3643   1.084       .  S
C3639      C3646   1.445       .  S
C3640      C3641   1.404       .  A
C3641      C3642   1.400       .  A
C3641      H3644   1.084       .  S
C3642      C3645   1.445       .  S
C3645      N3647   1.157       .  T
C3646      N3648   1.157       .  T
