geometry optimzed in LAMMPS
_audit_creation_date              2020-12-01 
_audit_creation_method            'lammps2cif' 
_symmetry_space_group_name_H-M    'P1' 
_symmetry_Int_Tables_number       1 
_symmetry_cell_setting            triclinic 
loop_ 
_symmetry_equiv_pos_as_xyz 
  x,y,z 
_cell_length_a                    45.55745848 
_cell_length_b                    44.52280192593098 
_cell_length_c                    32.51596085379338 
_cell_angle_alpha                 89.76000878604466 
_cell_angle_beta                  88.97510618874226 
_cell_angle_gamma                 122.10477152240824 
loop_ 
_atom_site_label 
_atom_site_type_symbol 
_atom_site_fract_x 
_atom_site_fract_y 
_atom_site_fract_z 
_atom_site_charge 
C1          C  0.01710284  0.47888139  0.12423212     0.02000
C2          C  0.03830435  0.01584522  0.12682306    -0.14100
C3          C  0.02416474  0.03670543  0.12169892    -0.00500
C4          C  0.48892048  0.02056021  0.11294017    -0.12600
C5          C  0.46753154  0.48354426  0.11111621     0.02000
C6          C  0.48173886  0.46267880  0.11690226    -0.12100
H7          H  0.06569203  0.02829262  0.13280949     0.07600
H8          H  0.47773844  0.03670980  0.10993940     0.05100
H9          H  0.46508505  0.43399640  0.11778741     0.05000
C10         C  0.20417515  0.35924630  0.14297475     0.02000
C11         C  0.18350359  0.32192044  0.14198510    -0.14100
C12         C  0.14718855  0.30438407  0.14621638    -0.00500
C13         C  0.13192312  0.32414737  0.15069686    -0.12600
C14         C  0.15274909  0.36114398  0.15110683     0.02000
C15         C  0.18870630  0.37858459  0.14849943    -0.12100
H16         H  0.19553551  0.30670007  0.13737449     0.07600
H17         H  0.10390726  0.31079612  0.15255376     0.05100
H18         H  0.20454437  0.40734705  0.14787363     0.05000
C19         C  0.39326249  0.33049325  0.50230467     0.79100
N20         N  0.38447740  0.29896393  0.01993974    -0.79200
C21         C  0.36258729  0.28622807  0.05305681     0.81600
N22         N  0.34885228  0.30475307  0.06798482    -0.79100
C23         C  0.35837122  0.33672679  0.05112172     0.81700
N24         N  0.38086709  0.34971137  0.01846753    -0.80800
O25         O  0.02883079  0.44469423  0.16784644    -0.82000
O26         O  0.10756766  0.37026158  0.16494589    -0.66700
O27         O  0.08846882  0.44257018  0.15894862    -1.13300
C28         C  0.07586599  0.40250307  0.02779499     1.04900
O29         O  0.15239288  0.41055250  0.12693933    -0.79900
O30         O  0.15461908  0.46661852  0.08651321    -0.67500
Ni31       Ni  0.06424192  0.44801471  0.20271553     1.34900
C32         C  0.14176760  0.48477865  0.07615473     0.83600
O33         O  0.10481055  0.40790447  0.22355278    -0.80400
O34         O  0.09941430  0.45311029  0.23940780    -0.90700
C35         C  0.13695052  0.38164661  0.14805824     0.83200
O36         O  0.03384528  0.39900962  0.21727616    -0.68900
O37         O  0.10872306  0.41893406  0.03158664    -0.88200
C38         C  0.02551560  0.37065133  0.19846451     0.84000
C39         C  0.11240670  0.43411844  0.24551377     1.05600
H40         H  0.07332234  0.37625992  0.10305739     0.37400
O41         O  0.09016531  0.40071472  0.10934083    -1.10900
O42         O  0.10924954  0.47114697  0.07821702    -0.67500
Ni43       Ni  0.07083271  0.42822080  0.10434665     1.26300
O44         O  0.04695779  0.36871758  0.17430253    -0.67700
O45         O  0.05633123  0.40880237  0.05065562    -0.80000
C46         C  0.03223269  0.45782916  0.13188882     0.83400
O47         O  0.04926721  0.45466305  0.10276509    -0.67200
Ni48       Ni  0.13120314  0.41580868  0.07908149     1.27400
Ni49       Ni  0.09646161  0.40474508  0.16572043     1.26100
H50         H  0.11080837  0.46445508  0.15669682     0.38000
C51         C  0.17535442  0.07019600  0.01601230     0.79100
N52         N  0.15409364  0.03561317  0.02932645    -0.79200
C53         C  0.16467960  0.02230230  0.06061908     0.81600
N54         N  0.19645919  0.04377580  0.07799840    -0.79100
C55         C  0.21726552  0.07795678  0.06446567     0.81700
N56         N  0.20609408  0.09000421  0.03408758    -0.80800
C57         C  0.48903854  0.34054387  0.20646814     0.79100
N58         N  0.47001065  0.34638432  0.23445790    -0.79200
C59         C  0.43612578  0.32197593  0.24243766     0.81600
N60         N  0.42104969  0.29060022  0.22255645    -0.79100
C61         C  0.43914804  0.28373637  0.19435255     0.81700
N62         N  0.47342650  0.30898872  0.18589778    -0.80800
O63         O  0.36277158  0.12293745  0.16550476    -0.82000
O64         O  0.37229116  0.23999047  0.07031340    -0.66700
O65         O  0.35206167  0.17604646  0.15953913    -1.13300
C66         C  0.24972667  0.10576670  0.08381001     1.04900
O67         O  0.32339837  0.23472290  0.09095696    -0.79900
O68         O  0.27025880  0.18098428  0.13534575    -0.67500
Ni69       Ni  0.38783218  0.17161484  0.18055945     1.34900
C70         C  0.26363009  0.16048331  0.16601946     0.83600
O71         O  0.40796007  0.24614181  0.13852622    -0.80400
O72         O  0.41310500  0.22107800  0.19577375    -0.90700
C73         C  0.35233594  0.25190052  0.07165356     0.83200
O74         O  0.41719339  0.18172261  0.13253157    -0.68900
O75         O  0.25708449  0.13679573  0.07336913    -0.88200
C76         C  0.41179838  0.18254238  0.09444974     0.84000
C77         C  0.42021277  0.24845164  0.17436115     1.05600
H78         H  0.32631062  0.16300471  0.06886697     0.37400
O79         O  0.32195199  0.17137347  0.09423742    -1.10900
O80         O  0.27921567  0.14377503  0.17125104    -0.67500
Ni81       Ni  0.31063067  0.13633815  0.13583681     1.26300
O82         O  0.38934060  0.18952925  0.08235028    -0.67700
O83         O  0.26852382  0.09987344  0.10794371    -0.80000
C84         C  0.33397218  0.10064331  0.18280705     0.83400
O85         O  0.30704363  0.10222405  0.17668510    -0.67200
Ni86       Ni  0.29068172  0.18513401  0.08245252     1.27400
Ni87       Ni  0.36509765  0.20823633  0.11464415     1.26100
H88         H  0.34449675  0.18492043  0.18172777     0.38000
O89         O  0.24990457  0.37140009  0.09871257    -0.82000
O90         O  0.40945747  0.45800184  0.08783340    -0.66700
O91         O  0.31592737  0.39423724  0.12448751    -1.13300
C92         C  0.33690859  0.49430135  0.19502251     1.04900
O93         O  0.41931469  0.46157003  0.15446222    -0.79900
O94         O  0.36717489  0.43388900  0.20982832    -0.67500
Ni95       Ni  0.28294972  0.35852790  0.08933028     1.34900
C96         C  0.33570783  0.41809343  0.22118251     0.83600
O97         O  0.36492616  0.39037555  0.07138042    -0.80400
O98         O  0.31260491  0.34103470  0.07817321    -0.90700
C99         C  0.43033778  0.46728970  0.11741244     0.83200
O100        O  0.29724324  0.38783439  0.04072815    -0.68900
O101        O  0.36344818  0.99287823  0.20352117    -0.88200
C102        C  0.31835924  0.42108717  0.03607621     0.84000
C103        C  0.34445813  0.35719103  0.06793927     1.05600
H104        H  0.36529992  0.47967619  0.11614003     0.37400
O105        O  0.35993158  0.45968871  0.13362708    -1.10900
O106        O  0.31308816  0.41901760  0.20071885    -0.67500
Ni107      Ni  0.31182360  0.43263887  0.14577214     1.26300
O108        O  0.34561023  0.43888156  0.05723889    -0.67700
O109        O  0.31382774  0.47384794  0.16903255    -0.80000
C110        C  0.24111863  0.37834971  0.13269487     0.83400
O111        O  0.26276638  0.40313709  0.15559210    -0.67200
Ni112      Ni  0.39028086  0.47640342  0.17794010     1.27400
Ni113      Ni  0.36209586  0.42494228  0.10317285     1.26100
H114        H  0.31756977  0.38145315  0.14748980     0.38000
C115        C  0.36914561  0.07049191  0.26157416     0.79100
N116        N  0.35839292  0.03753405  0.24857524    -0.79200
C117        C  0.33658949  0.02319686  0.21621591     0.81600
N118        N  0.32532054  0.04234360  0.19684602    -0.79100
C119        C  0.33475664  0.07505609  0.21076183     0.81700
N120        N  0.35742732  0.08910839  0.24216143    -0.80800
C121        C  0.19542756  0.12934964  0.25126796     0.79100
N122        N  0.22543322  0.13726350  0.23066330    -0.79200
C123        C  0.23357463  0.15414999  0.19296112     0.81600
N124        N  0.21125420  0.16244330  0.17648781    -0.79100
C125        C  0.18081764  0.15317656  0.19585156     0.81700
N126        N  0.17322850  0.13671877  0.23307209    -0.80800
O127        O  0.12709923  0.24933773  0.17805920    -0.82000
O128        O  0.05792373  0.09303834  0.15438101    -0.66700
O129        O  0.11607777  0.19281450  0.13385484    -1.13300
C130        C  0.01511123  0.17472509  0.07355028     1.04900
O131        O  0.05259353  0.09132561  0.08706266    -0.79900
O132        O  0.07448159  0.14878961  0.04023982    -0.67500
Ni133      Ni  0.14809140  0.22230653  0.17379548     1.34900
C134        C  0.09209189  0.18204277  0.03455999     0.83600
O135        O  0.12511768  0.14101791  0.17524073    -0.80400
O136        O  0.17107512  0.19674448  0.17096277    -0.90700
C137        C  0.04620529  0.07540066  0.12148146     0.83200
O138        O  0.12110398  0.19474716  0.22083702    -0.68900
O139        O  0.01611684  0.14833532  0.06008414    -0.88200
C140        C  0.08826887  0.17513994  0.22428764     0.84000
C141        C  0.15768452  0.16395250  0.17890471     1.05600
H142        H  0.03371318  0.13954908  0.14071891     0.37400
O143        O  0.05310487  0.14728854  0.12176464    -1.10900
O144        O  0.09279408  0.20353026  0.06046037    -0.67500
Ni145      Ni  0.07777552  0.19760547  0.11751077     1.26300
O146        O  0.07066771  0.15150057  0.19811684    -0.67700
O147        O  0.03664044  0.19694509  0.09962545    -0.80000
C148        C  0.12543433  0.26563629  0.14716357     0.83400
O149        O  0.10518792  0.24868939  0.11788398    -0.67200
Ni150      Ni  0.03500239  0.12066260  0.07433905     1.27400
Ni151      Ni  0.08838721  0.14343373  0.14740570     1.26100
H152        H  0.12973024  0.19523493  0.10955710     0.38000
C153        C  0.43384296  0.17554284  0.06530120     0.79100
N154        N  0.46610037  0.18481964  0.07837988    -0.79200
C155        C  0.48598308  0.17596312  0.05622188     0.81600
N156        N  0.47294734  0.15658292  0.02196793    -0.79100
C157        C  0.44085616  0.14497016  0.50906904     0.81700
N158        N  0.42075965  0.15450148  0.03088327    -0.80800
C159        C  0.48530166  0.03385196  0.37431299     0.02000
C160        C  0.46555084  0.49765419  0.36422113    -0.14100
C161        C  0.48158356  0.47832819  0.35848206    -0.00500
C162        C  0.01750719  0.49564600  0.36163002    -0.12600
C163        C  0.03752422  0.03135361  0.37247159     0.02000
C164        C  0.02136513  0.05050641  0.37933986    -0.12100
H165        H  0.43754600  0.48405931  0.36343223     0.07600
H166        H  0.02985263  0.48059262  0.35800846     0.05100
H167        H  0.03678421  0.07830098  0.38714225     0.05000
O168        O  0.08905798  0.04730309  0.33761949    -0.82000
O169        O  0.24722305  0.11938199  0.37348023    -0.66700
O170        O  0.14934053  0.06019788  0.37398586    -1.13300
C171        C  0.15717793  0.16090149  0.43563361     1.04900
O172        O  0.24722552  0.13771850  0.43654111    -0.79900
O173        O  0.19007856  0.12267187  0.47988014    -0.67500
Ni174      Ni  0.12914136  0.04532983  0.32235055     1.34900
C175        C  0.16950180  0.08898265  0.48112978     0.83600
O176        O  0.20210659  0.04964953  0.35524213    -0.80400
O177        O  0.16732833  0.04125774  0.30417460    -0.90700
C178        C  0.26312343  0.13733274  0.40450914     0.83200
O179        O  0.15167247  0.09217760  0.29976908    -0.68900
O180        O  0.18977401  0.17556235  0.43422843    -0.88200
C181        C  0.18388375  0.10936839  0.29109791     0.84000
C182        C  0.18373377  0.03107462  0.32557362     1.05600
H183        H  0.19349870  0.14019696  0.36868944     0.37400
O184        O  0.19065810  0.12479322  0.39145536    -1.10900
O185        O  0.14774348  0.07294291  0.45268905    -0.67500
Ni186      Ni  0.14205728  0.09322655  0.40152396     1.26300
O187        O  0.20499267  0.10750735  0.31479564    -0.67700
O188        O  0.13592218  0.12782269  0.42976151    -0.80000
C189        C  0.07539335  0.04801977  0.37195557     0.83400
O190        O  0.09286597  0.06087835  0.40454030    -0.67200
Ni191      Ni  0.21693574  0.15481809  0.43498317     1.27400
Ni192      Ni  0.19863765  0.08921444  0.37210006     1.26100
H193        H  0.14191658  0.03942613  0.39105202     0.38000
C194        C  0.11365971  0.19494698  0.99720601     0.79100
N195        N  0.12350699  0.17353282  0.48167931    -0.79200
C196        C  0.14400975  0.18304523  0.44798356     0.81600
N197        N  0.15485859  0.21458020  0.42906976    -0.79100
C198        C  0.14404295  0.23612099  0.44296969     0.81700
N199        N  0.12324700  0.22629933  0.47758822    -0.80800
C200        C  0.07197398  0.18364518  0.25824054     0.79100
N201        N  0.03760706  0.16450421  0.26931735    -0.79200
C202        C  0.02547319  0.17753391  0.29890790     0.81600
N203        N  0.04751726  0.20915483  0.31694264    -0.79100
C204        C  0.08144862  0.22762833  0.30576054     0.81700
N205        N  0.09300923  0.21459328  0.27681621    -0.80800
O206        O  0.46652631  0.06422600  0.41751932    -0.82000
O207        O  0.36259275  0.11165498  0.40734152    -0.66700
O208        O  0.40629979  0.06102299  0.39853515    -1.13300
C209        C  0.48960203  0.15686507  0.31478778     1.04900
O210        O  0.37839879  0.13473454  0.34431746    -0.80300
O211        O  0.41393197  0.12229018  0.29070128    -0.67500
Ni212      Ni  0.42415544  0.05452523  0.44670479     1.34900
C213        C  0.39717458  0.08869005  0.29195177     0.83600
O214        O  0.34608594  0.04581126  0.43191424    -0.80400
O215        O  0.38109538  0.04090400  0.47558018    -0.90700
C216        C  0.36410108  0.13173546  0.37900421     0.83200
O217        O  0.44515746  0.10305620  0.46624566    -0.68900
O218        O  0.47487073  0.17336807  0.32519236    -0.88200
C219        C  0.42810574  0.11760533  0.47579437     0.84000
C220        C  0.35118244  0.02900935  0.46016284     1.05600
H221        H  0.44223957  0.13885019  0.39704764     0.37400
O222        O  0.42604683  0.12342802  0.37679294    -1.10900
O223        O  0.40431483  0.07170633  0.31782306    -0.67500
Ni224      Ni  0.44011264  0.09206099  0.35981051     1.26300
O225        O  0.40037095  0.10846803  0.45771103    -0.67700
O226        O  0.47519666  0.12354249  0.31983084    -0.80000
C227        C  0.46751571  0.05319894  0.38123573     0.83400
O228        O  0.45331900  0.05868046  0.35098922    -0.67200
Ni229      Ni  0.42637935  0.15362134  0.33572512     1.27400
Ni230      Ni  0.38428621  0.08617282  0.40461192     1.26100
H231        H  0.39087720  0.03826799  0.38629595     0.38000
C232        C  0.01577398  0.33970110  0.45314991     0.79100
N233        N  0.02844414  0.36140528  0.48575277    -0.79200
C234        C  0.06071595  0.37421073  0.99803486     0.81600
N235        N  0.07996478  0.36291878  0.48000401    -0.79100
C236        C  0.06736406  0.33946085  0.44882246     0.81700
N237        N  0.03562438  0.32921718  0.43356093    -0.80800
O238        O  0.23237934  0.32955733  0.35008996    -0.82000
O239        O  0.09548688  0.31127615  0.41836158    -0.66700
O240        O  0.17129586  0.32944282  0.34707678    -1.13300
C241        C  0.23652240  0.42149628  0.44089268     1.04900
O242        O  0.11860733  0.36887272  0.41110855    -0.79900
O243        O  0.18091995  0.42546335  0.39262544    -0.67500
Ni244      Ni  0.18468860  0.29704072  0.33695262     1.34900
C245        C  0.18234521  0.42053869  0.35452964     0.83600
O246        O  0.10082463  0.27811364  0.34922793    -0.80400
O247        O  0.13813857  0.26354474  0.32299997    -0.90700
C248        C  0.09389899  0.33881282  0.42367510     0.83200
O249        O  0.17675537  0.27635478  0.39023905    -0.68900
O250        O  0.20805733  0.41261865  0.45978091    -0.88200
C251        C  0.15258409  0.26726814  0.41663124     0.84000
C252        C  0.10788630  0.25850689  0.32763349     1.05600
H253        H  0.17450511  0.34534192  0.43690131     0.37400
O254        O  0.16889871  0.35540513  0.41425478    -1.10900
O255        O  0.18909413  0.39764339  0.34165680    -0.67500
Ni256      Ni  0.20461095  0.37107246  0.37393626     1.26300
O257        O  0.13440184  0.28140906  0.41792144    -0.67700
O258        O  0.23799837  0.41247201  0.40395348    -0.80000
C259        C  0.25045721  0.35982801  0.33281046     0.83400
O260        O  0.23990020  0.38124090  0.33328156    -0.67200
Ni261      Ni  0.16279782  0.39067482  0.43619630     1.27400
Ni262      Ni  0.13302847  0.31689996  0.38322164     1.26100
H263        H  0.16657946  0.33588043  0.32069742     0.38000
O264        O  0.45731372  0.42802053  0.40040679    -0.82000
O265        O  0.39985529  0.26798643  0.39843296    -0.66700
O266        O  0.45474549  0.36692229  0.37537514    -1.13300
C267        C  0.35166559  0.34819862  0.31875933     1.04900
O268        O  0.37366255  0.25626608  0.33914149    -0.79900
O269        O  0.38520323  0.30381999  0.28231854    -0.67500
Ni270      Ni  0.47185450  0.39747430  0.42045164     1.34900
C271        C  0.41707880  0.32754531  0.27613230     0.83600
O272        O  0.46821678  0.31831315  0.40710824    -0.80400
O273        O  0.48769552  0.36885100  0.44250858    -0.90700
C274        C  0.37698165  0.24647151  0.37427454     0.83200
O275        O  0.43091397  0.37466665  0.45419975    -0.68900
O276        O  0.33741378  0.31511327  0.32475715    -0.88200
C277        C  0.41446136  0.34235778  0.46466902     0.84000
C278        C  0.48856207  0.34144979  0.43269922     1.05600
H279        H  0.37777438  0.32190440  0.39148147     0.37400
O280        O  0.39078070  0.32129868  0.36807199    -1.10900
O281        O  0.43351987  0.35465095  0.29892932    -0.67500
Ni282      Ni  0.41976563  0.36893679  0.34819277     1.26300
O283        O  0.41566383  0.31930968  0.44357263    -0.67700
O284        O  0.38398176  0.37052270  0.32121027    -0.80000
C285        C  0.46178653  0.43961862  0.36373911     0.83400
O286        O  0.45099266  0.41822330  0.33379448    -0.67200
Ni287      Ni  0.35727038  0.28703889  0.33212828     1.27400
Ni288      Ni  0.42838420  0.31753404  0.38754144     1.26100
H289        H  0.47378747  0.37247378  0.35674520     0.38000
C290        C  0.33076062  0.36179176  0.30549452     0.79100
N291        N  0.34251041  0.38392267  0.27270715    -0.79200
C292        C  0.32445733  0.39767560  0.25889279     0.81600
N293        N  0.29497116  0.39060398  0.27888212    -0.79100
C294        C  0.28335940  0.36908602  0.31264297     0.81700
N295        N  0.30088001  0.35379139  0.32546288    -0.80800
C296        C  0.26917626  0.44123611  0.46296276     0.79100
N297        N  0.27807108  0.42318172  0.98852104    -0.79200
C298        C  0.30959355  0.43996677  0.00632638     0.81600
N299        N  0.33186722  0.47501244  0.99897653    -0.79100
C300        C  0.32346628  0.99334354  0.47332689     0.81700
N301        N  0.29228975  0.47622536  0.45455408    -0.80800
C302        C  0.13973716  0.44643488  0.27640793     0.79100
N303        N  0.15044839  0.42672223  0.29627893    -0.79200
C304        C  0.17515478  0.44240211  0.32622719     0.81600
N305        N  0.18767444  0.47712540  0.33636023    -0.79100
C306        C  0.17776369  0.49638096  0.31460548     0.81700
N307        N  0.15426375  0.48050150  0.28544911    -0.80800
C308        C  0.30042146  0.15623015  0.40320924     0.02000
C309        C  0.32058656  0.19313439  0.39645541    -0.14100
C310        C  0.35587263  0.20930548  0.38552234    -0.00500
C311        C  0.37023404  0.18891450  0.38062543    -0.12600
C312        C  0.34955551  0.15249345  0.38675584     0.02000
C313        C  0.31520376  0.13611313  0.39924478    -0.12100
H314        H  0.30866001  0.20868493  0.39753540     0.07600
H315        H  0.39719083  0.20119366  0.37084719     0.05100
H316        H  0.29939617  0.10745836  0.40286533     0.05000
C317        C  0.01708004  0.47889139  0.62422758     0.02000
C318        C  0.03826578  0.01585533  0.62683008    -0.14100
C319        C  0.02411158  0.03670218  0.62171063    -0.00500
C320        C  0.48886731  0.02054538  0.61295201    -0.12600
C321        C  0.46749135  0.48352977  0.61112138     0.02000
C322        C  0.48171293  0.46267506  0.61689876    -0.12100
H323        H  0.06565394  0.02831397  0.63282101     0.07600
H324        H  0.47767475  0.03668578  0.60995653     0.05100
H325        H  0.46506831  0.43399193  0.61778191     0.05000
C326        C  0.20414849  0.35923272  0.64304096     0.02000
C327        C  0.18347477  0.32190728  0.64203689    -0.14100
C328        C  0.14716037  0.30437362  0.64627774    -0.00500
C329        C  0.13189828  0.32413931  0.65076701    -0.12600
C330        C  0.15272641  0.36113599  0.65117085     0.02000
C331        C  0.18868273  0.37857255  0.64858031    -0.12100
H332        H  0.19550378  0.30668616  0.63740736     0.07600
H333        H  0.10388244  0.31079008  0.65261914     0.05100
H334        H  0.20452212  0.40733496  0.64796000     0.05000
C335        C  0.39334009  0.33050748  0.00235293     0.79100
N336        N  0.38441219  0.29895647  0.51989892    -0.79200
C337        C  0.36253836  0.28622822  0.55303051     0.81600
N338        N  0.34880686  0.30475394  0.56796755    -0.79100
C339        C  0.35831295  0.33672157  0.55109737     0.81700
N340        N  0.38079360  0.34969929  0.51842757    -0.80800
O341        O  0.02885843  0.44476857  0.66787933    -0.82000
O342        O  0.10754247  0.37025783  0.66494045    -0.66700
O343        O  0.08846652  0.44258244  0.65895161    -1.13300
C344        C  0.07585467  0.40251795  0.52780129     1.04900
O345        O  0.15238002  0.41053655  0.62693431    -0.79900
O346        O  0.15460344  0.46662537  0.58651925    -0.67500
Ni347      Ni  0.06426031  0.44804419  0.70272923     1.34900
C348        C  0.14175167  0.48478565  0.57615420     0.83600
O349        O  0.10480686  0.40789880  0.72354819    -0.80400
O350        O  0.09942628  0.45310976  0.73941397    -0.90700
C351        C  0.13693049  0.38163856  0.64807233     0.83200
O352        O  0.03383295  0.39903675  0.71726589    -0.68900
O353        O  0.10871118  0.41894761  0.53159325    -0.88200
C354        C  0.02550434  0.37067328  0.69846466     0.84000
C355        C  0.11241208  0.43411143  0.74551329     1.05600
H356        H  0.07330695  0.37626706  0.60305908     0.37400
O357        O  0.09015143  0.40072158  0.60934251    -1.10900
O358        O  0.10923379  0.47115421  0.57821719    -0.67500
Ni359      Ni  0.07082043  0.42823057  0.60435373     1.26300
O360        O  0.04694649  0.36873177  0.67431050    -0.67700
O361        O  0.05631836  0.40881391  0.55066397    -0.80000
C362        C  0.03222756  0.45785640  0.63190077     0.83400
O363        O  0.04924862  0.45466951  0.60277553    -0.67200
Ni364      Ni  0.13118897  0.41581249  0.57908307     1.27400
Ni365      Ni  0.09645080  0.40474925  0.66571913     1.26100
H366        H  0.11080886  0.46446333  0.65669296     0.38000
C367        C  0.17533551  0.07021144  0.51601800     0.79100
N368        N  0.15407311  0.03562682  0.52933008    -0.79200
C369        C  0.16466219  0.02231088  0.56061604     0.81600
N370        N  0.19644462  0.04378131  0.57798954    -0.79100
C371        C  0.21725131  0.07796208  0.56445794     0.81700
N372        N  0.20607755  0.09001354  0.53408784    -0.80800
C373        C  0.48902696  0.34056495  0.70646916     0.79100
N374        N  0.47000179  0.34639756  0.73447174    -0.79200
C375        C  0.43611668  0.32198716  0.74244997     0.81600
N376        N  0.42103760  0.29061892  0.72255276    -0.79100
C377        C  0.43913283  0.28376265  0.69433602     0.81700
N378        N  0.47341201  0.30901581  0.68588534    -0.80800
O379        O  0.36276633  0.12294819  0.66553174    -0.82000
O380        O  0.37226328  0.24000646  0.57029955    -0.66700
O381        O  0.35204722  0.17605793  0.65952457    -1.13300
C382        C  0.24971489  0.10576988  0.58379745     1.04900
O383        O  0.32336531  0.23472576  0.59093908    -0.79900
O384        O  0.27024188  0.18099032  0.63532812    -0.67500
Ni385      Ni  0.38782321  0.17163571  0.68055203     1.34900
C386        C  0.26361100  0.16048398  0.66599550     0.83600
O387        O  0.40793229  0.24616790  0.63851265    -0.80400
O388        O  0.41309952  0.22110548  0.69574585    -0.90700
C389        C  0.35230075  0.25190770  0.57163503     0.83200
O390        O  0.41716702  0.18172190  0.63251212    -0.68900
O391        O  0.25706911  0.13679784  0.57335954    -0.88200
C392        C  0.41177939  0.18256028  0.59443051     0.84000
C393        C  0.42019672  0.24847857  0.67433985     1.05600
H394        H  0.32629936  0.16301760  0.56884990     0.37400
O395        O  0.32193676  0.17138236  0.59422097    -1.10900
O396        O  0.27919769  0.14377632  0.67122560    -0.67500
Ni397      Ni  0.31062025  0.13634516  0.63582015     1.26300
O398        O  0.38933068  0.18956100  0.58233414    -0.67700
O399        O  0.26851635  0.09987744  0.60792454    -0.80000
C400        C  0.33396123  0.10065288  0.68282291     0.83400
O401        O  0.30703297  0.10223025  0.67667608    -0.67200
Ni402      Ni  0.29065999  0.18513646  0.58243589     1.27400
Ni403      Ni  0.36507646  0.20825255  0.61463044     1.26100
H404        H  0.34447747  0.18492677  0.68171373     0.38000
O405        O  0.24987458  0.37142057  0.59874793    -0.82000
O406        O  0.40941657  0.45799368  0.58784383    -0.66700
O407        O  0.31589166  0.39423230  0.62450640    -1.13300
C408        C  0.33688522  0.49430097  0.69506497     1.04900
O409        O  0.41927706  0.46155274  0.65447051    -0.79900
O410        O  0.36717984  0.43391922  0.70986943    -0.67500
Ni411      Ni  0.28290715  0.35853367  0.58934560     1.34900
C412        C  0.33571186  0.41810193  0.72121757     0.83600
O413        O  0.36487774  0.39037178  0.57137766    -0.80400
O414        O  0.31255425  0.34103283  0.57817328    -0.90700
C415        C  0.43029752  0.46726939  0.61742039     0.83200
O416        O  0.29720277  0.38784307  0.54074402    -0.68900
O417        O  0.36344455  0.99290308  0.70353324    -0.88200
C418        C  0.31832501  0.42109459  0.53608888     0.84000
C419        C  0.34440603  0.35718784  0.56793014     1.05600
H420        H  0.36525382  0.47966689  0.61616826     0.37400
O421        O  0.35989573  0.45968195  0.63365385    -1.10900
O422        O  0.31307913  0.41900151  0.70075265    -0.67500
Ni423      Ni  0.31179120  0.43262773  0.64581773     1.26300
O424        O  0.34557123  0.43888656  0.55725931    -0.67700
O425        O  0.31379097  0.47382928  0.66909822    -0.80000
C426        C  0.24108968  0.37834151  0.63275025     0.83400
O427        O  0.26273839  0.40311766  0.65565757    -0.67200
Ni428      Ni  0.39026440  0.47641205  0.67794937     1.27400
Ni429      Ni  0.36205584  0.42493755  0.60318579     1.26100
H430        H  0.31753631  0.38144232  0.64750068     0.38000
C431        C  0.36912008  0.07049360  0.76160955     0.79100
N432        N  0.35836132  0.03753210  0.74861857    -0.79200
C433        C  0.33655873  0.02319364  0.71625908     0.81600
N434        N  0.32529543  0.04234352  0.69688103    -0.79100
C435        C  0.33473738  0.07506117  0.71078754     0.81700
N436        N  0.35740712  0.08911262  0.74218909    -0.80800
C437        C  0.19542583  0.12934764  0.75125539     0.79100
N438        N  0.22542781  0.13726730  0.73064072    -0.79200
C439        C  0.23355307  0.15414302  0.69293454     0.81600
N440        N  0.21121966  0.16242150  0.67646392    -0.79100
C441        C  0.18078417  0.15315028  0.69583769     0.81700
N442        N  0.17321269  0.13670243  0.73306499    -0.80800
O443        O  0.12705401  0.24931337  0.67809378    -0.82000
O444        O  0.05786756  0.09303463  0.65438730    -0.66700
O445        O  0.11603644  0.19280639  0.63387039    -1.13300
C446        C  0.01509431  0.17476085  0.57353575     1.04900
O447        O  0.05252224  0.09131800  0.58706854    -0.79900
O448        O  0.07444699  0.14880068  0.54024876    -0.67500
Ni449      Ni  0.14805115  0.22228700  0.67381617     1.34900
C450        C  0.09206009  0.18205490  0.53456782     0.83600
O451        O  0.12507318  0.14099870  0.67524186    -0.80400
O452        O  0.17103489  0.19672333  0.67096899    -0.90700
C453        C  0.04613984  0.07539682  0.62148994     0.83200
O454        O  0.12107052  0.19471884  0.72085510    -0.68900
O455        O  0.01609451  0.14836798  0.56007283    -0.88200
C456        C  0.08823577  0.17512271  0.72430893     0.84000
C457        C  0.15764367  0.16392927  0.67890324     1.05600
H458        H  0.03366978  0.13955754  0.64072670     0.37400
O459        O  0.05306111  0.14729437  0.62177251    -1.10900
O460        O  0.09276732  0.20354261  0.56047252    -0.67500
Ni461      Ni  0.07774162  0.19761208  0.61752312     1.26300
O462        O  0.07062625  0.15149437  0.69813071    -0.67700
O463        O  0.03661599  0.19696903  0.59962584    -0.80000
C464        C  0.12540089  0.26562660  0.64720510     0.83400
O465        O  0.10516221  0.24869425  0.61791375    -0.67200
Ni466      Ni  0.03495765  0.12067788  0.57433936     1.27400
Ni467      Ni  0.08833984  0.14342689  0.64741411     1.26100
H468        H  0.12968913  0.19522623  0.60957328     0.38000
C469        C  0.43382633  0.17556988  0.56527611     0.79100
N470        N  0.46608796  0.18485921  0.57834986    -0.79200
C471        C  0.48597521  0.17600864  0.55619298     0.81600
N472        N  0.47294029  0.15662380  0.52194068    -0.79100
C473        C  0.44086925  0.14494600  0.00908868     0.81700
N474        N  0.42074167  0.15451889  0.53086520    -0.80800
C475        C  0.48532425  0.03385739  0.87429469     0.02000
C476        C  0.46557707  0.49765232  0.86422864    -0.14100
C477        C  0.48161579  0.47832989  0.85850078    -0.00500
C478        C  0.01753991  0.49565570  0.86163455    -0.12600
C479        C  0.03755417  0.03136729  0.87245487     0.02000
C480        C  0.02139176  0.05052018  0.87930911    -0.12100
H481        H  0.43757135  0.48405000  0.86345332     0.07600
H482        H  0.02988905  0.48060501  0.85802120     0.05100
H483        H  0.03680945  0.07831762  0.88709908     0.05000
O484        O  0.08908472  0.04730203  0.83760685    -0.82000
O485        O  0.24724164  0.11936943  0.87347914    -0.66700
O486        O  0.14936260  0.06018481  0.87396753    -1.13300
C487        C  0.15721935  0.16089902  0.93562788     1.04900
O488        O  0.24718949  0.13762443  0.93656733    -0.79900
O489        O  0.19006180  0.12265073  0.97988795    -0.67500
Ni490      Ni  0.12916533  0.04532511  0.82233243     1.34900
C491        C  0.16951117  0.08895970  0.98112616     0.83600
O492        O  0.20213433  0.04964350  0.85521527    -0.80400
O493        O  0.16735451  0.04125448  0.80415115    -0.90700
C494        C  0.26311542  0.13728631  0.90453832     0.83200
O495        O  0.15169078  0.09217586  0.79976863    -0.68900
O496        O  0.18981588  0.17555604  0.93421731    -0.88200
C497        C  0.18389896  0.10936865  0.79108861     0.84000
C498        C  0.18376038  0.03106951  0.82554809     1.05600
H499        H  0.19352382  0.14018659  0.86869260     0.37400
O500        O  0.19067934  0.12477555  0.89145188    -1.10900
O501        O  0.14776759  0.07291620  0.95267357    -0.67500
Ni502      Ni  0.14208324  0.09321374  0.90151708     1.26300
O503        O  0.20501358  0.10750637  0.81477754    -0.67700
O504        O  0.13595975  0.12781714  0.92976502    -0.80000
C505        C  0.07542223  0.04802717  0.87194118     0.83400
O506        O  0.09289247  0.06087351  0.90452967    -0.67200
Ni507      Ni  0.21694956  0.15478017  0.93499456     1.27400
Ni508      Ni  0.19865951  0.08920202  0.87208197     1.26100
H509        H  0.14193903  0.03941049  0.89102882     0.38000
C510        C  0.11362657  0.19495795  0.49720864     0.79100
N511        N  0.12354390  0.17352582  0.98167315    -0.79200
C512        C  0.14405405  0.18304672  0.94798298     0.81600
N513        N  0.15490475  0.21458721  0.92907839    -0.79100
C514        C  0.14408153  0.23612185  0.94298389     0.81700
N515        N  0.12328073  0.22629076  0.97759603    -0.80800
C516        C  0.07195296  0.18363049  0.75827171     0.79100
N517        N  0.03758403  0.16450791  0.76933484    -0.79200
C518        C  0.02545780  0.17754285  0.79892648     0.81600
N519        N  0.04751147  0.20915348  0.81697581    -0.79100
C520        C  0.08144689  0.22760763  0.80580950     0.81700
N521        N  0.09300039  0.21456620  0.77686496    -0.80800
O522        O  0.46652690  0.06419962  0.91752568    -0.82000
O523        O  0.36258998  0.11163826  0.90738477    -0.66700
O524        O  0.40630550  0.06101776  0.89854368    -1.13300
C525        C  0.48958771  0.15687600  0.81480372     1.04900
O526        O  0.37838683  0.13473547  0.84436877    -0.80300
O527        O  0.41390666  0.12229377  0.79073436    -0.67500
Ni528      Ni  0.42416039  0.05451473  0.94671140     1.34900
C529        C  0.39715503  0.08869354  0.79198159     0.83600
O530        O  0.34608942  0.04579807  0.93192612    -0.80400
O531        O  0.38110526  0.04090713  0.97559285    -0.90700
C532        C  0.36409788  0.13172920  0.87906298     0.83200
O533        O  0.44517285  0.10305004  0.96623728    -0.68900
O534        O  0.47485470  0.17337617  0.82521219    -0.88200
C535        C  0.42811847  0.11759245  0.97580374     0.84000
C536        C  0.35119096  0.02900188  0.96017481     1.05600
H537        H  0.44223524  0.13884724  0.89707076     0.37400
O538        O  0.42604224  0.12342569  0.87681606    -1.10900
O539        O  0.40430883  0.07171124  0.81783995    -0.67500
Ni540      Ni  0.44011343  0.09206472  0.85982205     1.26300
O541        O  0.40037705  0.10845147  0.95773411    -0.67700
O542        O  0.47518628  0.12355371  0.81984137    -0.80000
C543        C  0.46752770  0.05319618  0.88123133     0.83400
O544        O  0.45333316  0.05869069  0.85099020    -0.67200
Ni545      Ni  0.42636476  0.15362384  0.83576032     1.27400
Ni546      Ni  0.38428700  0.08616307  0.90463271     1.26100
H547        H  0.39088470  0.03826418  0.88630062     0.38000
C548        C  0.01577194  0.33963747  0.95317643     0.79100
N549        N  0.02843895  0.36134245  0.98578245    -0.79200
C550        C  0.06070471  0.37423335  0.49803553     0.81600
N551        N  0.07999133  0.36292521  0.97998115    -0.79100
C552        C  0.06738946  0.33945601  0.94881226     0.81700
N553        N  0.03563603  0.32917899  0.93357265    -0.80800
O554        O  0.23239463  0.32954082  0.85008188    -0.82000
O555        O  0.09550664  0.31127037  0.91836063    -0.66700
O556        O  0.17131275  0.32942699  0.84708789    -1.13300
C557        C  0.23653240  0.42148603  0.94090839     1.04900
O558        O  0.11862752  0.36886512  0.91108945    -0.79900
O559        O  0.18094392  0.42545881  0.89262229    -0.67500
Ni560      Ni  0.18469775  0.29701356  0.83699077     1.34900
C561        C  0.18235992  0.42052684  0.85452679     0.83600
O562        O  0.10083970  0.27811654  0.84923297    -0.80400
O563        O  0.13813497  0.26349317  0.82308864    -0.90700
C564        C  0.09391898  0.33880737  0.92366134     0.83200
O565        O  0.17681945  0.27639800  0.89030479    -0.68900
O566        O  0.20806584  0.41260846  0.95979320    -0.88200
C567        C  0.15261948  0.26727521  0.91666154     0.84000
C568        C  0.10788969  0.25848071  0.82768401     1.05600
H569        H  0.17451797  0.34533012  0.93691451     0.37400
O570        O  0.16891358  0.35539318  0.91426588    -1.10900
O571        O  0.18910245  0.39762530  0.84165976    -0.67500
Ni572      Ni  0.20462393  0.37106055  0.87394802     1.26300
O573        O  0.13440857  0.28138603  0.91792194    -0.67700
O574        O  0.23800909  0.41246453  0.90396704    -0.80000
C575        C  0.25046835  0.35981763  0.83281832     0.83400
O576        O  0.23991028  0.38122913  0.83329626    -0.67200
Ni577      Ni  0.16281151  0.39066746  0.93619329     1.27400
Ni578      Ni  0.13304598  0.31689106  0.88322888     1.26100
H579        H  0.16659894  0.33585949  0.82070371     0.38000
O580        O  0.45739048  0.42803189  0.90044129    -0.82000
O581        O  0.39984122  0.26796613  0.89847215    -0.66700
O582        O  0.45476666  0.36689995  0.87539161    -1.13300
C583        C  0.35169113  0.34822189  0.81880524     1.04900
O584        O  0.37362124  0.25623610  0.83919736    -0.79900
O585        O  0.38520631  0.30380109  0.78236784    -0.67500
Ni586      Ni  0.47191880  0.39746600  0.92045558     1.34900
C587        C  0.41707436  0.32754250  0.77616206     0.83600
O588        O  0.46821186  0.31826349  0.90713347    -0.80400
O589        O  0.48775193  0.36883351  0.94248654    -0.90700
C590        C  0.37695236  0.24644937  0.87432910     0.83200
O591        O  0.43100411  0.37467833  0.95425032    -0.68900
O592        O  0.33743558  0.31513455  0.82478472    -0.88200
C593        C  0.41452977  0.34236616  0.96471203     0.84000
C594        C  0.48857621  0.34140406  0.93270999     1.05600
H595        H  0.37779311  0.32190401  0.89152703     0.37400
O596        O  0.39079256  0.32129492  0.86811177    -1.10900
O597        O  0.43351543  0.35465185  0.79895316    -0.67500
Ni598      Ni  0.41978601  0.36893519  0.84823698     1.26300
O599        O  0.41568998  0.31930347  0.94359789    -0.67700
O600        O  0.38400437  0.37054432  0.82128355    -0.80000
C601        C  0.46183111  0.43962084  0.86377265     0.83400
O602        O  0.45101884  0.41821951  0.83383494    -0.67200
Ni603      Ni  0.35726704  0.28704005  0.83217320     1.27400
Ni604      Ni  0.42838914  0.31751061  0.88756796     1.26100
H605        H  0.47379561  0.37243643  0.85674656     0.38000
C606        C  0.33079007  0.36181775  0.80553663     0.79100
N607        N  0.34253871  0.38394935  0.77274865    -0.79200
C608        C  0.32447451  0.39768891  0.75892789     0.81600
N609        N  0.29498333  0.39060530  0.77890944    -0.79100
C610        C  0.28337488  0.36908822  0.81266741     0.81700
N611        N  0.30090176  0.35380336  0.82549404    -0.80800
C612        C  0.26918737  0.44122670  0.96298089     0.79100
N613        N  0.27805414  0.42319076  0.48850937    -0.79200
C614        C  0.30957109  0.43997537  0.50632593     0.81600
N615        N  0.33184682  0.47502123  0.49897676    -0.79100
C616        C  0.32348030  0.99333415  0.97333599     0.81700
N617        N  0.29230008  0.47621589  0.95457103    -0.80800
C618        C  0.13974849  0.44642334  0.77640115     0.79100
N619        N  0.15045692  0.42670828  0.79627477    -0.79200
C620        C  0.17516812  0.44238932  0.82621931     0.81600
N621        N  0.18769456  0.47711604  0.83634425    -0.79100
C622        C  0.17778639  0.49637277  0.81458591     0.81700
N623        N  0.15428265  0.48049196  0.78543506    -0.80800
C624        C  0.30041006  0.15620032  0.90327364     0.02000
C625        C  0.32056102  0.19310273  0.89650358    -0.14100
C626        C  0.35585064  0.20928488  0.88558486    -0.00500
C627        C  0.37022392  0.18890370  0.88070354    -0.12600
C628        C  0.34955393  0.15248312  0.88683881     0.02000
C629        C  0.31520448  0.13609485  0.89933342    -0.12100
H630        H  0.30862189  0.20864184  0.89756084     0.07600
H631        H  0.39718106  0.20118851  0.87092430     0.05100
H632        H  0.29940413  0.10743978  0.90295815     0.05000
C633        C  0.01710288  0.97888142  0.12423211     0.02000
C634        C  0.03830432  0.51584518  0.12682306    -0.14100
C635        C  0.02416470  0.53670540  0.12169891    -0.00500
C636        C  0.48892046  0.52056019  0.11294015    -0.12600
C637        C  0.46753156  0.98354428  0.11111622     0.02000
C638        C  0.48173890  0.96267883  0.11690225    -0.12100
H639        H  0.06569199  0.52829257  0.13280949     0.07600
H640        H  0.47773841  0.53670978  0.10993939     0.05100
H641        H  0.46508510  0.93399644  0.11778740     0.05000
C642        C  0.20417515  0.85924630  0.14297469     0.02000
C643        C  0.18350359  0.82192043  0.14198512    -0.14100
C644        C  0.14718854  0.80438407  0.14621641    -0.00500
C645        C  0.13192311  0.82414739  0.15069685    -0.12600
C646        C  0.15274908  0.86114398  0.15110675     0.02000
C647        C  0.18870628  0.87858460  0.14849926    -0.12100
H648        H  0.19553552  0.80670006  0.13737457     0.07600
H649        H  0.10390727  0.81079614  0.15255378     0.05100
H650        H  0.20454434  0.90734705  0.14787339     0.05000
C651        C  0.39326240  0.83049318  0.50230464     0.79100
N652        N  0.38447737  0.79896391  0.01993972    -0.79200
C653        C  0.36258724  0.78622804  0.05305678     0.81600
N654        N  0.34885222  0.80475302  0.06798478    -0.79100
C655        C  0.35837119  0.83672676  0.05112172     0.81700
N656        N  0.38086706  0.84971135  0.01846753    -0.80800
O657        O  0.02883085  0.94469428  0.16784644    -0.82000
O658        O  0.10756764  0.87026157  0.16494592    -0.66700
O659        O  0.08846883  0.94257018  0.15894862    -1.13300
C660        C  0.07586600  0.90250306  0.02779496     1.04900
O661        O  0.15239286  0.91055252  0.12693938    -0.79900
O662        O  0.15461909  0.96661852  0.08651313    -0.67500
Ni663      Ni  0.06424197  0.94801476  0.20271553     1.34900
C664        C  0.14176763  0.98477867  0.07615471     0.83600
O665        O  0.10481053  0.90790447  0.22355279    -0.80400
O666        O  0.09941435  0.95311035  0.23940777    -0.90700
C667        C  0.13695051  0.88164661  0.14805825     0.83200
O668        O  0.03384534  0.89900967  0.21727622    -0.68900
O669        O  0.10872306  0.91893399  0.03158663    -0.88200
C670        C  0.02551562  0.87065138  0.19846455     0.84000
C671        C  0.11240672  0.93411846  0.24551376     1.05600
H672        H  0.07332228  0.87625986  0.10305738     0.37400
O673        O  0.09016531  0.90071473  0.10934083    -1.10900
O674        O  0.10924957  0.97114700  0.07821702    -0.67500
Ni675      Ni  0.07083273  0.92822083  0.10434663     1.26300
O676        O  0.04695779  0.86871760  0.17430256    -0.67700
O677        O  0.05633127  0.90880242  0.05065558    -0.80000
C678        C  0.03223275  0.95782921  0.13188882     0.83400
O679        O  0.04926726  0.95466310  0.10276509    -0.67200
Ni680      Ni  0.13120313  0.91580865  0.07908151     1.27400
Ni681      Ni  0.09646161  0.90474507  0.16572044     1.26100
H682        H  0.11080839  0.96445507  0.15669682     0.38000
C683        C  0.17535438  0.57019594  0.01601228     0.79100
N684        N  0.15409361  0.53561311  0.02932642    -0.79200
C685        C  0.16467958  0.52230225  0.06061905     0.81600
N686        N  0.19645918  0.54377575  0.07799836    -0.79100
C687        C  0.21726550  0.57795673  0.06446565     0.81700
N688        N  0.20609405  0.59000415  0.03408756    -0.80800
C689        C  0.48903855  0.84054394  0.20646813     0.79100
N690        N  0.47001068  0.84638438  0.23445792    -0.79200
C691        C  0.43612581  0.82197600  0.24243768     0.81600
N692        N  0.42104970  0.79060028  0.22255648    -0.79100
C693        C  0.43914804  0.78373645  0.19435254     0.81700
N694        N  0.47342650  0.80898881  0.18589774    -0.80800
O695        O  0.36277162  0.62293753  0.16550479    -0.82000
O696        O  0.37229118  0.73999050  0.07031338    -0.66700
O697        O  0.35206169  0.67604653  0.15953912    -1.13300
C698        C  0.24972664  0.60576667  0.08381002     1.04900
O699        O  0.32339834  0.73472286  0.09095690    -0.79900
O700        O  0.27025874  0.68098424  0.13534568    -0.67500
Ni701      Ni  0.38783221  0.67161493  0.18055946     1.34900
C702        C  0.26363009  0.66048332  0.16601943     0.83600
O703        O  0.40796009  0.74614189  0.13852620    -0.80400
O704        O  0.41310502  0.72107809  0.19577375    -0.90700
C705        C  0.35233591  0.75190050  0.07165351     0.83200
O706        O  0.41719344  0.68172269  0.13253159    -0.68900
O707        O  0.25708445  0.63679569  0.07336911    -0.88200
C708        C  0.41179842  0.68254245  0.09444976     0.84000
C709        C  0.42021278  0.74845172  0.17436114     1.05600
H710        H  0.32631064  0.66300472  0.06886697     0.37400
O711        O  0.32195201  0.67137349  0.09423741    -1.10900
O712        O  0.27921571  0.64377510  0.17125105    -0.67500
Ni713      Ni  0.31063069  0.63633819  0.13583682     1.26300
O714        O  0.38934066  0.68952934  0.08235030    -0.67700
O715        O  0.26852381  0.59987344  0.10794374    -0.80000
C716        C  0.33397221  0.60064337  0.18280707     0.83400
O717        O  0.30704366  0.60222412  0.17668514    -0.67200
Ni718      Ni  0.29068169  0.68513398  0.08245248     1.27400
Ni719      Ni  0.36509768  0.70823638  0.11464413     1.26100
H720        H  0.34449677  0.68492051  0.18172775     0.38000
O721        O  0.24990459  0.87140007  0.09871255    -0.82000
O722        O  0.40945749  0.95800182  0.08783341    -0.66700
O723        O  0.31592738  0.89423723  0.12448749    -1.13300
C724        C  0.33690861  0.99430136  0.19502254     1.04900
O725        O  0.41931470  0.96157005  0.15446223    -0.79900
O726        O  0.36717491  0.93388906  0.20982842    -0.67500
Ni727      Ni  0.28294974  0.85852787  0.08933029     1.34900
C728        C  0.33570782  0.91809342  0.22118253     0.83600
O729        O  0.36492616  0.89037553  0.07138041    -0.80400
O730        O  0.31260492  0.84103466  0.07817328    -0.90700
C731        C  0.43033780  0.96728971  0.11741246     0.83200
O732        O  0.29724330  0.88783436  0.04072814    -0.68900
O733        O  0.36344818  0.49287823  0.20352112    -0.88200
C734        C  0.31835926  0.92108715  0.03607623     0.84000
C735        C  0.34445813  0.85719100  0.06793929     1.05600
H736        H  0.36529994  0.97967620  0.11614003     0.37400
O737        O  0.35993159  0.95968868  0.13362712    -1.10900
O738        O  0.31308813  0.91901753  0.20071881    -0.67500
Ni739      Ni  0.31182361  0.93263887  0.14577213     1.26300
O740        O  0.34561026  0.93888156  0.05723889    -0.67700
O741        O  0.31382776  0.97384795  0.16903258    -0.80000
C742        C  0.24111863  0.87834971  0.13269483     0.83400
O743        O  0.26276638  0.90313711  0.15559204    -0.67200
Ni744      Ni  0.39028087  0.97640343  0.17794013     1.27400
Ni745      Ni  0.36209587  0.92494226  0.10317286     1.26100
H746        H  0.31756975  0.88145313  0.14748979     0.38000
C747        C  0.36914554  0.57049185  0.26157419     0.79100
N748        N  0.35839281  0.53753397  0.24857528    -0.79200
C749        C  0.33658943  0.52319683  0.21621590     0.81600
N750        N  0.32532056  0.54234362  0.19684597    -0.79100
C751        C  0.33475667  0.57505611  0.21076180     0.81700
N752        N  0.35742732  0.58910837  0.24216142    -0.80800
C753        C  0.19542757  0.62934959  0.25126795     0.79100
N754        N  0.22543324  0.63726348  0.23066328    -0.79200
C755        C  0.23357464  0.65414998  0.19296111     0.81600
N756        N  0.21125420  0.66244329  0.17648782    -0.79100
C757        C  0.18081765  0.65317654  0.19585158     0.81700
N758        N  0.17322851  0.63671873  0.23307210    -0.80800
O759        O  0.12709919  0.74933769  0.17805920    -0.82000
O760        O  0.05792373  0.59303833  0.15438103    -0.66700
O761        O  0.11607778  0.69281449  0.13385481    -1.13300
C762        C  0.01511119  0.67472503  0.07355030     1.04900
O763        O  0.05259352  0.59132561  0.08706269    -0.79900
O764        O  0.07448154  0.64878959  0.04023980    -0.67500
Ni765      Ni  0.14809141  0.72230652  0.17379548     1.34900
C766        C  0.09209183  0.68204276  0.03455997     0.83600
O767        O  0.12511770  0.64101793  0.17524078    -0.80400
O768        O  0.17107515  0.69674450  0.17096279    -0.90700
C769        C  0.04620526  0.57540064  0.12148148     0.83200
O770        O  0.12110399  0.69474714  0.22083703    -0.68900
O771        O  0.01611680  0.64833526  0.06008416    -0.88200
C772        C  0.08826887  0.67513997  0.22428762     0.84000
C773        C  0.15768454  0.66395251  0.17890474     1.05600
H774        H  0.03371321  0.63954909  0.14071888     0.37400
O775        O  0.05310486  0.64728852  0.12176465    -1.10900
O776        O  0.09279405  0.70353024  0.06046037    -0.67500
Ni777      Ni  0.07777550  0.69760545  0.11751078     1.26300
O778        O  0.07066772  0.65150061  0.19811681    -0.67700
O779        O  0.03664040  0.69694504  0.09962547    -0.80000
C780        C  0.12543430  0.76563627  0.14716359     0.83400
O781        O  0.10518789  0.74868937  0.11788399    -0.67200
Ni782      Ni  0.03500237  0.62066257  0.07433907     1.27400
Ni783      Ni  0.08838722  0.64343374  0.14740571     1.26100
H784        H  0.12973023  0.69523494  0.10955710     0.38000
C785        C  0.43384297  0.67554286  0.06530121     0.79100
N786        N  0.46610037  0.68481964  0.07837987    -0.79200
C787        C  0.48598304  0.67596304  0.05622190     0.81600
N788        N  0.47294727  0.65658281  0.02196798    -0.79100
C789        C  0.44085621  0.64497025  0.50906896     0.81700
N790        N  0.42075963  0.65450149  0.03088330    -0.80800
C791        C  0.48530163  0.53385197  0.37431304     0.02000
C792        C  0.46555085  0.99765416  0.36422114    -0.14100
C793        C  0.48158356  0.97832816  0.35848209    -0.00500
C794        C  0.01750716  0.99564596  0.36163003    -0.12600
C795        C  0.03752424  0.53135366  0.37247159     0.02000
C796        C  0.02136512  0.55050644  0.37933987    -0.12100
H797        H  0.43754601  0.98405928  0.36343228     0.07600
H798        H  0.02985260  0.98059258  0.35800845     0.05100
H799        H  0.03678419  0.57830100  0.38714227     0.05000
O800        O  0.08905799  0.54730310  0.33761951    -0.82000
O801        O  0.24722308  0.61938200  0.37348020    -0.66700
O802        O  0.14934055  0.56019788  0.37398587    -1.13300
C803        C  0.15717801  0.66090154  0.43563359     1.04900
O804        O  0.24722555  0.63771849  0.43654108    -0.79900
O805        O  0.19007863  0.62267186  0.47988012    -0.67500
Ni806      Ni  0.12914138  0.54532983  0.32235057     1.34900
C807        C  0.16950184  0.58898264  0.48112976     0.83600
O808        O  0.20210658  0.54964950  0.35524217    -0.80400
O809        O  0.16732834  0.54125772  0.30417461    -0.90700
C810        C  0.26312346  0.63733276  0.40450911     0.83200
O811        O  0.15167252  0.59217761  0.29976914    -0.68900
O812        O  0.18977409  0.67556238  0.43422846    -0.88200
C813        C  0.18388378  0.60936836  0.29109792     0.84000
C814        C  0.18373380  0.53107462  0.32557362     1.05600
H815        H  0.19349875  0.64019698  0.36868940     0.37400
O816        O  0.19065814  0.62479324  0.39145533    -1.10900
O817        O  0.14774351  0.57294292  0.45268903    -0.67500
Ni818      Ni  0.14205732  0.59322658  0.40152394     1.26300
O819        O  0.20499270  0.60750730  0.31479562    -0.67700
O820        O  0.13592225  0.62782275  0.42976147    -0.80000
C821        C  0.07539338  0.54801982  0.37195558     0.83400
O822        O  0.09286600  0.56087840  0.40454030    -0.67200
Ni823      Ni  0.21693579  0.65481809  0.43498316     1.27400
Ni824      Ni  0.19863767  0.58921443  0.37210007     1.26100
H825        H  0.14191657  0.53942614  0.39105203     0.38000
C826        C  0.11365965  0.69494698  0.99720599     0.79100
N827        N  0.12350709  0.67353287  0.48167929    -0.79200
C828        C  0.14400982  0.68304528  0.44798353     0.81600
N829        N  0.15485862  0.71458023  0.42906970    -0.79100
C830        C  0.14404294  0.73612099  0.44296964     0.81700
N831        N  0.12324699  0.72629931  0.47758816    -0.80800
C832        C  0.07197397  0.68364525  0.25824047     0.79100
N833        N  0.03760706  0.66450424  0.26931730    -0.79200
C834        C  0.02547318  0.67753391  0.29890790     0.81600
N835        N  0.04751725  0.70915479  0.31694269    -0.79100
C836        C  0.08144860  0.72762834  0.30576055     0.81700
N837        N  0.09300921  0.71459335  0.27681615    -0.80800
O838        O  0.46652632  0.56422606  0.41751929    -0.82000
O839        O  0.36259275  0.61165499  0.40734152    -0.66700
O840        O  0.40629978  0.56102300  0.39853516    -1.13300
C841        C  0.48960201  0.65686505  0.31478776     1.04900
O842        O  0.37839876  0.63473451  0.34431743    -0.80300
O843        O  0.41393196  0.62229011  0.29070127    -0.67500
Ni844      Ni  0.42415547  0.55452529  0.44670479     1.34900
C845        C  0.39717453  0.58868998  0.29195180     0.83600
O846        O  0.34608595  0.54581127  0.43191425    -0.80400
O847        O  0.38109541  0.54090403  0.47558019    -0.90700
C848        C  0.36410108  0.63173547  0.37900421     0.83200
O849        O  0.44515750  0.60305629  0.46624558    -0.68900
O850        O  0.47487071  0.67336806  0.32519233    -0.88200
C851        C  0.42810577  0.61760541  0.47579430     0.84000
C852        C  0.35118246  0.52900936  0.46016284     1.05600
H853        H  0.44223954  0.63885019  0.39704759     0.37400
O854        O  0.42604683  0.62342803  0.37679293    -1.10900
O855        O  0.40431476  0.57170627  0.31782310    -0.67500
Ni856      Ni  0.44011261  0.59206098  0.35981050     1.26300
O857        O  0.40037095  0.60846805  0.45771101    -0.67700
O858        O  0.47519662  0.62354246  0.31983079    -0.80000
C859        C  0.46751567  0.55319894  0.38123574     0.83400
O860        O  0.45331896  0.55868044  0.35098922    -0.67200
Ni861      Ni  0.42637933  0.65362132  0.33572507     1.27400
Ni862      Ni  0.38428620  0.58617283  0.40461192     1.26100
H863        H  0.39087721  0.53826800  0.38629598     0.38000
C864        C  0.01577393  0.83970104  0.45314994     0.79100
N865        N  0.02844408  0.86140521  0.48575281    -0.79200
C866        C  0.06071594  0.87421073  0.99803484     0.81600
N867        N  0.07996473  0.86291876  0.48000402    -0.79100
C868        C  0.06736402  0.83946081  0.44882249     0.81700
N869        N  0.03562434  0.82921712  0.43356096    -0.80800
O870        O  0.23237930  0.82955734  0.35008993    -0.82000
O871        O  0.09548686  0.81127614  0.41836161    -0.66700
O872        O  0.17129581  0.82944282  0.34707678    -1.13300
C873        C  0.23652237  0.92149630  0.44089269     1.04900
O874        O  0.11860729  0.86887271  0.41110856    -0.79900
O875        O  0.18091992  0.92546337  0.39262545    -0.67500
Ni876      Ni  0.18468856  0.79704073  0.33695262     1.34900
C877        C  0.18234517  0.92053870  0.35452966     0.83600
O878        O  0.10082460  0.77811363  0.34922796    -0.80400
O879        O  0.13813853  0.76354472  0.32300003    -0.90700
C880        C  0.09389896  0.83881280  0.42367513     0.83200
O881        O  0.17675540  0.77635484  0.39023906    -0.68900
O882        O  0.20805731  0.91261871  0.45978090    -0.88200
C883        C  0.15258410  0.76726816  0.41663122     0.84000
C884        C  0.10788627  0.75850687  0.32763353     1.05600
H885        H  0.17450507  0.84534191  0.43690136     0.37400
O886        O  0.16889867  0.85540513  0.41425480    -1.10900
O887        O  0.18909406  0.89764337  0.34165683    -0.67500
Ni888      Ni  0.20461090  0.87107245  0.37393627     1.26300
O889        O  0.13440182  0.78140905  0.41792142    -0.67700
O890        O  0.23799833  0.91247198  0.40395351    -0.80000
C891        C  0.25045717  0.85982803  0.33281046     0.83400
O892        O  0.23990014  0.88124091  0.33328156    -0.67200
Ni893      Ni  0.16279779  0.89067485  0.43619631     1.27400
Ni894      Ni  0.13302843  0.81689996  0.38322166     1.26100
H895        H  0.16657940  0.83588042  0.32069743     0.38000
O896        O  0.45731364  0.92802048  0.40040679    -0.82000
O897        O  0.39985535  0.76798645  0.39843292    -0.66700
O898        O  0.45474552  0.86692231  0.37537515    -1.13300
C899        C  0.35166561  0.84819867  0.31875937     1.04900
O900        O  0.37366259  0.75626613  0.33914146    -0.79900
O901        O  0.38520327  0.80382007  0.28231855    -0.67500
Ni902      Ni  0.47185447  0.89747428  0.42045168     1.34900
C903        C  0.41707884  0.82754537  0.27613232     0.83600
O904        O  0.46821681  0.81831316  0.40710824    -0.80400
O905        O  0.48769550  0.86885098  0.44250863    -0.90700
C906        C  0.37698171  0.74647155  0.37427451     0.83200
O907        O  0.43091391  0.87466660  0.45419973    -0.68900
O908        O  0.33741381  0.81511333  0.32475719    -0.88200
C909        C  0.41446130  0.84235772  0.46466900     0.84000
C910        C  0.48856206  0.84144978  0.43269925     1.05600
H911        H  0.37777440  0.82190442  0.39148148     0.37400
O912        O  0.39078074  0.82129871  0.36807196    -1.10900
O913        O  0.43351993  0.85465100  0.29892935    -0.67500
Ni914      Ni  0.41976566  0.86893682  0.34819276     1.26300
O915        O  0.41566382  0.81930965  0.44357262    -0.67700
O916        O  0.38398179  0.87052274  0.32121025    -0.80000
C917        C  0.46178651  0.93961859  0.36373912     0.83400
O918        O  0.45099270  0.91822331  0.33379447    -0.67200
Ni919      Ni  0.35727042  0.78703894  0.33212828     1.27400
Ni920      Ni  0.42838423  0.81753406  0.38754143     1.26100
H921        H  0.47378750  0.87247380  0.35674524     0.38000
C922        C  0.33076062  0.86179180  0.30549457     0.79100
N923        N  0.34251038  0.88392268  0.27270718    -0.79200
C924        C  0.32445730  0.89767560  0.25889280     0.81600
N925        N  0.29497113  0.89060399  0.27888213    -0.79100
C926        C  0.28335938  0.86908605  0.31264300     0.81700
N927        N  0.30088000  0.85379143  0.32546293    -0.80800
C928        C  0.26917624  0.94123612  0.46296276     0.79100
N929        N  0.27807103  0.92318172  0.98852119    -0.79200
C930        C  0.30959352  0.93996676  0.00632648     0.81600
N931        N  0.33186722  0.97501242  0.99897657    -0.79100
C932        C  0.32346632  0.49334354  0.47332687     0.81700
N933        N  0.29228972  0.97622536  0.45455408    -0.80800
C934        C  0.13973715  0.94643488  0.27640794     0.79100
N935        N  0.15044840  0.92672224  0.29627890    -0.79200
C936        C  0.17515475  0.94240211  0.32622720     0.81600
N937        N  0.18767439  0.97712538  0.33636027    -0.79100
C938        C  0.17776362  0.99638094  0.31460554     0.81700
N939        N  0.15426367  0.98050148  0.28544918    -0.80800
C940        C  0.30042150  0.65623020  0.40320921     0.02000
C941        C  0.32058659  0.69313444  0.39645536    -0.14100
C942        C  0.35587267  0.70930552  0.38552232    -0.00500
C943        C  0.37023408  0.68891453  0.38062543    -0.12600
C944        C  0.34955555  0.65249349  0.38675585     0.02000
C945        C  0.31520381  0.63611318  0.39924480    -0.12100
H946        H  0.30866004  0.70868499  0.39753532     0.07600
H947        H  0.39719087  0.70119367  0.37084718     0.05100
H948        H  0.29939622  0.60745841  0.40286538     0.05000
C949        C  0.01708003  0.97889141  0.62422760     0.02000
C950        C  0.03826580  0.51585531  0.62683007    -0.14100
C951        C  0.02411158  0.53670215  0.62171063    -0.00500
C952        C  0.48886734  0.52054537  0.61295197    -0.12600
C953        C  0.46749134  0.98352976  0.61112140     0.02000
C954        C  0.48171294  0.96267505  0.61689878    -0.12100
H955        H  0.06565396  0.52831395  0.63282099     0.07600
H956        H  0.47767478  0.53668578  0.60995647     0.05100
H957        H  0.46506833  0.93399191  0.61778191     0.05000
C958        C  0.20414849  0.85923277  0.64304091     0.02000
C959        C  0.18347480  0.82190731  0.64203677    -0.14100
C960        C  0.14716039  0.80437361  0.64627771    -0.00500
C961        C  0.13189828  0.82413928  0.65076704    -0.12600
C962        C  0.15272639  0.86113598  0.65117086     0.02000
C963        C  0.18868272  0.87857258  0.64858032    -0.12100
H964        H  0.19550381  0.80668620  0.63740716     0.07600
H965        H  0.10388244  0.81079002  0.65261919     0.05100
H966        H  0.20452209  0.90733499  0.64796005     0.05000
C967        C  0.39334005  0.83050746  0.00235292     0.79100
N968        N  0.38441210  0.79895641  0.51989889    -0.79200
C969        C  0.36253829  0.78622818  0.55303050     0.81600
N970        N  0.34880681  0.80475390  0.56796756    -0.79100
C971        C  0.35831288  0.83672152  0.55109737     0.81700
N972        N  0.38079353  0.84969924  0.51842755    -0.80800
O973        O  0.02885852  0.94476871  0.66787938    -0.82000
O974        O  0.10754245  0.87025783  0.66494044    -0.66700
O975        O  0.08846653  0.94258246  0.65895161    -1.13300
C976        C  0.07585462  0.90251794  0.52780128     1.04900
O977        O  0.15237998  0.91053651  0.62693426    -0.79900
O978        O  0.15460340  0.96662537  0.58651923    -0.67500
Ni979      Ni  0.06426038  0.94804426  0.70272924     1.34900
C980        C  0.14175164  0.98478566  0.57615418     0.83600
O981        O  0.10480691  0.90789882  0.72354816    -0.80400
O982        O  0.09942634  0.95310978  0.73941395    -0.90700
C983        C  0.13693046  0.88163854  0.64807231     0.83200
O984        O  0.03383297  0.89903681  0.71726585    -0.68900
O985        O  0.10871112  0.91894761  0.53159323    -0.88200
C986        C  0.02550437  0.87067333  0.69846466     0.84000
C987        C  0.11241215  0.93411146  0.74551325     1.05600
H988        H  0.07330694  0.87626712  0.60305908     0.37400
O989        O  0.09015138  0.90072156  0.60934249    -1.10900
O990        O  0.10923376  0.97115424  0.57821719    -0.67500
Ni991      Ni  0.07082042  0.92823060  0.60435373     1.26300
O992        O  0.04694651  0.86873179  0.67431054    -0.67700
O993        O  0.05631832  0.90881395  0.55066395    -0.80000
C994        C  0.03222759  0.95785647  0.63190080     0.83400
O995        O  0.04924863  0.95466956  0.60277555    -0.67200
Ni996      Ni  0.13118892  0.91581248  0.57908305     1.27400
Ni997      Ni  0.09645081  0.90474926  0.66571911     1.26100
H998        H  0.11080889  0.96446338  0.65669294     0.38000
C999        C  0.17533551  0.57021142  0.51601799     0.79100
N1000       N  0.15407312  0.53562680  0.52933009    -0.79200
C1001       C  0.16466221  0.52231088  0.56061605     0.81600
N1002       N  0.19644466  0.54378132  0.57798954    -0.79100
C1003       C  0.21725133  0.57796209  0.56445792     0.81700
N1004       N  0.20607755  0.59001353  0.53408783    -0.80800
C1005       C  0.48902697  0.84056502  0.70646913     0.79100
N1006       N  0.47000179  0.84639762  0.73447170    -0.79200
C1007       C  0.43611668  0.82198720  0.74244993     0.81600
N1008       N  0.42103762  0.79061895  0.72255273    -0.79100
C1009       C  0.43913285  0.78376272  0.69433596     0.81700
N1010       N  0.47341204  0.80901589  0.68588530    -0.80800
O1011       O  0.36276634  0.62294826  0.66553176    -0.82000
O1012       O  0.37226323  0.74000645  0.57029951    -0.66700
O1013       O  0.35204725  0.67605802  0.65952458    -1.13300
C1014       C  0.24971491  0.60576992  0.58379739     1.04900
O1015       O  0.32336529  0.73472577  0.59093914    -0.79900
O1016       O  0.27024177  0.68099027  0.63532801    -0.67500
Ni1017     Ni  0.38782325  0.67163579  0.68055202     1.34900
C1018       C  0.26361099  0.66048405  0.66599548     0.83600
O1019       O  0.40793231  0.74616796  0.63851260    -0.80400
O1020       O  0.41309958  0.72110556  0.69574580    -0.90700
C1021       C  0.35230070  0.75190769  0.57163504     0.83200
O1022       O  0.41716705  0.68172197  0.63251210    -0.68900
O1023       O  0.25706917  0.63679788  0.57335936    -0.88200
C1024       C  0.41177938  0.68256029  0.59443050     0.84000
C1025       C  0.42019676  0.74847864  0.67433979     1.05600
H1026       H  0.32629936  0.66301761  0.56884992     0.37400
O1027       O  0.32193675  0.67138241  0.59422102    -1.10900
O1028       O  0.27919774  0.64377646  0.67122564    -0.67500
Ni1029     Ni  0.31062026  0.63634524  0.63582019     1.26300
O1030       O  0.38933065  0.68956098  0.58233414    -0.67700
O1031       O  0.26851634  0.59987752  0.60792460    -0.80000
C1032       C  0.33396124  0.60065294  0.68282293     0.83400
O1033       O  0.30703299  0.60223034  0.67667612    -0.67200
Ni1034     Ni  0.29066000  0.68513649  0.58243583     1.27400
Ni1035     Ni  0.36507646  0.70825260  0.61463043     1.26100
H1036       H  0.34447752  0.68492688  0.68171374     0.38000
O1037       O  0.24987463  0.87142069  0.59874791    -0.82000
O1038       O  0.40941657  0.95799362  0.58784378    -0.66700
O1039       O  0.31589166  0.89423234  0.62450639    -1.13300
C1040       C  0.33688525  0.99430100  0.69506495     1.04900
O1041       O  0.41927700  0.96155267  0.65447046    -0.79900
O1042       O  0.36717986  0.93391929  0.70986946    -0.67500
Ni1043     Ni  0.28290713  0.85853370  0.58934562     1.34900
C1044       C  0.33571187  0.91810198  0.72121756     0.83600
O1045       O  0.36487771  0.89037172  0.57137771    -0.80400
O1046       O  0.31255419  0.84103281  0.57817329    -0.90700
C1047       C  0.43029750  0.96726934  0.61742036     0.83200
O1048       O  0.29720274  0.88784307  0.54074402    -0.68900
O1049       O  0.36344448  0.49290300  0.70353331    -0.88200
C1050       C  0.31832500  0.92109458  0.53608886     0.84000
C1051       C  0.34440598  0.85718780  0.56793016     1.05600
H1052       H  0.36525384  0.97966688  0.61616821     0.37400
O1053       O  0.35989575  0.95968199  0.63365378    -1.10900
O1054       O  0.31307915  0.91900157  0.70075265    -0.67500
Ni1055     Ni  0.31179123  0.93262779  0.64581771     1.26300
O1056       O  0.34557124  0.93888653  0.55725925    -0.67700
O1057       O  0.31379103  0.97382934  0.66909818    -0.80000
C1058       C  0.24108970  0.87834161  0.63275023     0.83400
O1059       O  0.26273841  0.90311776  0.65565756    -0.67200
Ni1060     Ni  0.39026442  0.97641208  0.67794931     1.27400
Ni1061     Ni  0.36205583  0.92493753  0.60318577     1.26100
H1062       H  0.31753631  0.88144234  0.64750070     0.38000
C1063       C  0.36912014  0.57049367  0.76160949     0.79100
N1064       N  0.35836141  0.53753218  0.74861848    -0.79200
C1065       C  0.33655878  0.52319369  0.71625904     0.81600
N1066       N  0.32529544  0.54234355  0.69688102    -0.79100
C1067       C  0.33473738  0.57506120  0.71078755     0.81700
N1068       N  0.35740712  0.58911266  0.74218909    -0.80800
C1069       C  0.19542586  0.62934769  0.75125541     0.79100
N1070       N  0.22542786  0.63726739  0.73064075    -0.79200
C1071       C  0.23355308  0.65414310  0.69293455     0.81600
N1072       N  0.21121964  0.66242152  0.67646392    -0.79100
C1073       C  0.18078413  0.65315025  0.69583768     0.81700
N1074       N  0.17321268  0.63670242  0.73306499    -0.80800
O1075       O  0.12705404  0.74931334  0.67809377    -0.82000
O1076       O  0.05786751  0.59303458  0.65438730    -0.66700
O1077       O  0.11603642  0.69280632  0.63387035    -1.13300
C1078       C  0.01509433  0.67476085  0.57353574     1.04900
O1079       O  0.05252225  0.59131796  0.58706853    -0.79900
O1080       O  0.07444707  0.64880066  0.54024879    -0.67500
Ni1081     Ni  0.14805112  0.72228692  0.67381615     1.34900
C1082       C  0.09206013  0.68205488  0.53456779     0.83600
O1083       O  0.12507312  0.64099861  0.67524183    -0.80400
O1084       O  0.17103484  0.69672324  0.67096893    -0.90700
C1085       C  0.04613982  0.57539678  0.62148994     0.83200
O1086       O  0.12107048  0.69471872  0.72085509    -0.68900
O1087       O  0.01609453  0.64836798  0.56007280    -0.88200
C1088       C  0.08823573  0.67512259  0.72430894     0.84000
C1089       C  0.15764362  0.66392919  0.67890321     1.05600
H1090       H  0.03366975  0.63955750  0.64072665     0.37400
O1091       O  0.05306109  0.64729433  0.62177248    -1.10900
O1092       O  0.09276731  0.70354258  0.56047248    -0.67500
Ni1093     Ni  0.07774164  0.69761204  0.61752308     1.26300
O1094       O  0.07062620  0.65149429  0.69813069    -0.67700
O1095       O  0.03661604  0.69696903  0.59962582    -0.80000
C1096       C  0.12540093  0.76562657  0.64720508     0.83400
O1097       O  0.10516229  0.74869422  0.61791370    -0.67200
Ni1098     Ni  0.03495767  0.62067786  0.57433932     1.27400
Ni1099     Ni  0.08833979  0.64342682  0.64741409     1.26100
H1100       H  0.12968911  0.69522613  0.60957325     0.38000
C1101       C  0.43382633  0.67556989  0.56527610     0.79100
N1102       N  0.46608796  0.68485919  0.57834986    -0.79200
C1103       C  0.48597522  0.67600866  0.55619295     0.81600
N1104       N  0.47294034  0.65662388  0.52194060    -0.79100
C1105       C  0.44086919  0.64494596  0.00908872     0.81700
N1106       N  0.42074169  0.65451893  0.53086516    -0.80800
C1107       C  0.48532425  0.53385736  0.87429469     0.02000
C1108       C  0.46557709  0.99765234  0.86422863    -0.14100
C1109       C  0.48161580  0.97832991  0.85850080    -0.00500
C1110       C  0.01753995  0.99565577  0.86163457    -0.12600
C1111       C  0.03755416  0.53136722  0.87245486     0.02000
C1112       C  0.02139177  0.55052013  0.87930911    -0.12100
H1113       H  0.43757137  0.98405002  0.86345332     0.07600
H1114       H  0.02988910  0.98060509  0.85802121     0.05100
H1115       H  0.03680949  0.57831757  0.88709909     0.05000
O1116       O  0.08908472  0.54730199  0.83760683    -0.82000
O1117       O  0.24724163  0.61936945  0.87347912    -0.66700
O1118       O  0.14936260  0.56018479  0.87396752    -1.13300
C1119       C  0.15721932  0.66089902  0.93562786     1.04900
O1120       O  0.24718940  0.63762433  0.93656734    -0.79900
O1121       O  0.19006172  0.62265067  0.97988795    -0.67500
Ni1122     Ni  0.12916535  0.54532511  0.82233242     1.34900
C1123       C  0.16951112  0.58895964  0.98112615     0.83600
O1124       O  0.20213435  0.54964350  0.85521529    -0.80400
O1125       O  0.16735456  0.54125451  0.80415115    -0.90700
C1126       C  0.26311537  0.63728630  0.90453832     0.83200
O1127       O  0.15169080  0.59217585  0.79976860    -0.68900
O1128       O  0.18981584  0.67555602  0.93421732    -0.88200
C1129       C  0.18389899  0.60936867  0.79108861     0.84000
C1130       C  0.18376040  0.53106952  0.82554810     1.05600
H1131       H  0.19352378  0.64018660  0.86869257     0.37400
O1132       O  0.19067931  0.62477552  0.89145188    -1.10900
O1133       O  0.14776755  0.57291614  0.95267354    -0.67500
Ni1134     Ni  0.14208321  0.59321371  0.90151706     1.26300
O1135       O  0.20501359  0.60750637  0.81477753    -0.67700
O1136       O  0.13595970  0.62781713  0.92976498    -0.80000
C1137       C  0.07542221  0.54802707  0.87194117     0.83400
O1138       O  0.09289244  0.56087343  0.90452966    -0.67200
Ni1139     Ni  0.21694951  0.65478011  0.93499458     1.27400
Ni1140     Ni  0.19865951  0.58920202  0.87208197     1.26100
H1141       H  0.14193904  0.53941046  0.89102880     0.38000
C1142       C  0.11362661  0.69495796  0.49720860     0.79100
N1143       N  0.12354384  0.67352582  0.98167313    -0.79200
C1144       C  0.14405401  0.68304673  0.94798297     0.81600
N1145       N  0.15490472  0.71458723  0.92907840    -0.79100
C1146       C  0.14408149  0.73612187  0.94298390     0.81700
N1147       N  0.12328068  0.72629077  0.97759603    -0.80800
C1148       C  0.07195294  0.68363037  0.75827176     0.79100
N1149       N  0.03758401  0.66450781  0.76933489    -0.79200
C1150       C  0.02545779  0.67754281  0.79892648     0.81600
N1151       N  0.04751147  0.70915345  0.81697577    -0.79100
C1152       C  0.08144689  0.72760757  0.80580948     0.81700
N1153       N  0.09300038  0.71456609  0.77686498    -0.80800
O1154       O  0.46652690  0.56419961  0.91752569    -0.82000
O1155       O  0.36258998  0.61163829  0.90738470    -0.66700
O1156       O  0.40630551  0.56101779  0.89854366    -1.13300
C1157       C  0.48958769  0.65687600  0.81480369     1.04900
O1158       O  0.37838687  0.63473560  0.84436874    -0.80300
O1159       O  0.41390667  0.62229385  0.79073434    -0.67500
Ni1160     Ni  0.42416037  0.55451475  0.94671139     1.34900
C1161       C  0.39715507  0.58869361  0.79198155     0.83600
O1162       O  0.34608942  0.54579811  0.93192610    -0.80400
O1163       O  0.38110524  0.54090717  0.97559284    -0.90700
C1164       C  0.36409787  0.63172925  0.87906293     0.83200
O1165       O  0.44517282  0.60305004  0.96623729    -0.68900
O1166       O  0.47485471  0.67337619  0.82521221    -0.88200
C1167       C  0.42811844  0.61759245  0.97580374     0.84000
C1168       C  0.35119095  0.52900192  0.96017481     1.05600
H1169       H  0.44223524  0.63884728  0.89707075     0.37400
O1170       O  0.42604223  0.62342572  0.87681601    -1.10900
O1171       O  0.40430885  0.57171130  0.81783991    -0.67500
Ni1172     Ni  0.44011344  0.59206476  0.85982201     1.26300
O1173       O  0.40037705  0.60845151  0.95773407    -0.67700
O1174       O  0.47518622  0.62355370  0.81984128    -0.80000
C1175       C  0.46752773  0.55319620  0.88123133     0.83400
O1176       O  0.45333321  0.55869074  0.85099019    -0.67200
Ni1177     Ni  0.42636479  0.65362392  0.83576031     1.27400
Ni1178     Ni  0.38428700  0.58616311  0.90463267     1.26100
H1179       H  0.39088472  0.53826427  0.88630061     0.38000
C1180       C  0.01577191  0.83963744  0.95317644     0.79100
N1181       N  0.02843893  0.86134245  0.98578245    -0.79200
C1182       C  0.06070466  0.87423330  0.49803556     0.81600
N1183       N  0.07999130  0.86292519  0.97998114    -0.79100
C1184       C  0.06738942  0.83945597  0.94881227     0.81700
N1185       N  0.03563598  0.82917894  0.93357267    -0.80800
O1186       O  0.23239466  0.82954079  0.85008183    -0.82000
O1187       O  0.09550660  0.81127033  0.91836057    -0.66700
O1188       O  0.17131277  0.82942699  0.84708788    -1.13300
C1189       C  0.23653237  0.92148599  0.94090846     1.04900
O1190       O  0.11862750  0.86886508  0.91108948    -0.79900
O1191       O  0.18094387  0.92545876  0.89262233    -0.67500
Ni1192     Ni  0.18469775  0.79701355  0.83699075     1.34900
C1193       C  0.18235991  0.92052683  0.85452683     0.83600
O1194       O  0.10083969  0.77811653  0.84923287    -0.80400
O1195       O  0.13813497  0.76349316  0.82308862    -0.90700
C1196       C  0.09391895  0.83880733  0.92366135     0.83200
O1197       O  0.17681944  0.77639803  0.89030482    -0.68900
O1198       O  0.20806580  0.91260838  0.95979325    -0.88200
C1199       C  0.15261945  0.76727523  0.91666155     0.84000
C1200       C  0.10788968  0.75848069  0.82768395     1.05600
H1201       H  0.17451794  0.84533008  0.93691449     0.37400
O1202       O  0.16891356  0.85539313  0.91426588    -1.10900
O1203       O  0.18910249  0.89762532  0.84165980    -0.67500
Ni1204     Ni  0.20462394  0.87106053  0.87394805     1.26300
O1205       O  0.13440850  0.78138600  0.91792190    -0.67700
O1206       O  0.23800909  0.91246449  0.90396711    -0.80000
C1207       C  0.25046840  0.85981763  0.83281836     0.83400
O1208       O  0.23991032  0.88122912  0.83329632    -0.67200
Ni1209     Ni  0.16281147  0.89066739  0.93619332     1.27400
Ni1210     Ni  0.13304596  0.81689104  0.88322883     1.26100
H1211       H  0.16659900  0.83585953  0.82070368     0.38000
O1212       O  0.45739051  0.92803191  0.90044130    -0.82000
O1213       O  0.39984119  0.76796610  0.89847214    -0.66700
O1214       O  0.45476665  0.86689992  0.87539159    -1.13300
C1215       C  0.35169115  0.84822186  0.81880520     1.04900
O1216       O  0.37362124  0.75623606  0.83919733    -0.79900
O1217       O  0.38520633  0.80380106  0.78236783    -0.67500
Ni1218     Ni  0.47191878  0.89746597  0.92045558     1.34900
C1219       C  0.41707436  0.82754250  0.77616204     0.83600
O1220       O  0.46821181  0.81826342  0.90713348    -0.80400
O1221       O  0.48775187  0.86883344  0.94248655    -0.90700
C1222       C  0.37695233  0.74644935  0.87432909     0.83200
O1223       O  0.43100408  0.87467832  0.95425031    -0.68900
O1224       O  0.33743560  0.81513452  0.82478469    -0.88200
C1225       C  0.41452972  0.84236614  0.96471201     0.84000
C1226       C  0.48857615  0.84140398  0.93271001     1.05600
H1227       H  0.37779311  0.82190397  0.89152701     0.37400
O1228       O  0.39079257  0.82129489  0.86811173    -1.10900
O1229       O  0.43351543  0.85465186  0.79895313    -0.67500
Ni1230     Ni  0.41978601  0.86893517  0.84823697     1.26300
O1231       O  0.41568993  0.81930346  0.94359786    -0.67700
O1232       O  0.38400438  0.87054430  0.82128352    -0.80000
C1233       C  0.46183112  0.93962085  0.86377267     0.83400
O1234       O  0.45101885  0.91821953  0.83383495    -0.67200
Ni1235     Ni  0.35726705  0.78704001  0.83217317     1.27400
Ni1236     Ni  0.42838912  0.81751058  0.88756794     1.26100
H1237       H  0.47379561  0.87243640  0.85674655     0.38000
C1238       C  0.33079009  0.86181772  0.80553658     0.79100
N1239       N  0.34253869  0.88394929  0.77274855    -0.79200
C1240       C  0.32447452  0.89768890  0.75892786     0.81600
N1241       N  0.29498338  0.89060533  0.77890948    -0.79100
C1242       C  0.28337496  0.86908827  0.81266747     0.81700
N1243       N  0.30090184  0.85380341  0.82549407    -0.80800
C1244       C  0.26918734  0.94122669  0.96298099     0.79100
N1245       N  0.27805411  0.92319076  0.48850936    -0.79200
C1246       C  0.30957107  0.93997537  0.50632593     0.81600
N1247       N  0.33184679  0.97502123  0.49897679    -0.79100
C1248       C  0.32348029  0.49333418  0.97333597     0.81700
N1249       N  0.29230009  0.97621586  0.95457105    -0.80800
C1250       C  0.13974859  0.94642338  0.77640108     0.79100
N1251       N  0.15045697  0.92670830  0.79627476    -0.79200
C1252       C  0.17516812  0.94238933  0.82621936     0.81600
N1253       N  0.18769454  0.97711604  0.83634430    -0.79100
C1254       C  0.17778644  0.99637280  0.81458588     0.81700
N1255       N  0.15428277  0.98049201  0.78543495    -0.80800
C1256       C  0.30041001  0.65620031  0.90327367     0.02000
C1257       C  0.32056097  0.69310272  0.89650358    -0.14100
C1258       C  0.35585061  0.70928487  0.88558488    -0.00500
C1259       C  0.37022390  0.68890371  0.88070358    -0.12600
C1260       C  0.34955390  0.65248312  0.88683881     0.02000
C1261       C  0.31520443  0.63609483  0.89933342    -0.12100
H1262       H  0.30862184  0.70864184  0.89756080     0.07600
H1263       H  0.39718105  0.70118854  0.87092435     0.05100
H1264       H  0.29940408  0.60743975  0.90295814     0.05000
C1265       C  0.51710284  0.47888138  0.12423211     0.02000
C1266       C  0.53830434  0.01584522  0.12682306    -0.14100
C1267       C  0.52416472  0.03670542  0.12169891    -0.00500
C1268       C  0.98892050  0.02056022  0.11294017    -0.12600
C1269       C  0.96753154  0.48354426  0.11111621     0.02000
C1270       C  0.98173887  0.46267882  0.11690226    -0.12100
H1271       H  0.56569201  0.02829263  0.13280948     0.07600
H1272       H  0.97773848  0.03670982  0.10993940     0.05100
H1273       H  0.96508506  0.43399643  0.11778741     0.05000
C1274       C  0.70417515  0.35924629  0.14297477     0.02000
C1275       C  0.68350358  0.32192043  0.14198511    -0.14100
C1276       C  0.64718854  0.30438406  0.14621639    -0.00500
C1277       C  0.63192310  0.32414737  0.15069686    -0.12600
C1278       C  0.65274909  0.36114398  0.15110683     0.02000
C1279       C  0.68870631  0.37858459  0.14849943    -0.12100
H1280       H  0.69553551  0.30670006  0.13737451     0.07600
H1281       H  0.60390724  0.31079611  0.15255374     0.05100
H1282       H  0.70454439  0.40734705  0.14787363     0.05000
C1283       C  0.89326248  0.33049325  0.50230470     0.79100
N1284       N  0.88447742  0.29896393  0.01993973    -0.79200
C1285       C  0.86258731  0.28622807  0.05305681     0.81600
N1286       N  0.84885230  0.30475307  0.06798482    -0.79100
C1287       C  0.85837125  0.33672680  0.05112174     0.81700
N1288       N  0.88086710  0.34971138  0.01846753    -0.80800
O1289       O  0.52883080  0.44469422  0.16784643    -0.82000
O1290       O  0.60756767  0.37026158  0.16494588    -0.66700
O1291       O  0.58846883  0.44257018  0.15894862    -1.13300
C1292       C  0.57586600  0.40250307  0.02779499     1.04900
O1293       O  0.65239290  0.41055250  0.12693933    -0.79900
O1294       O  0.65461909  0.46661851  0.08651321    -0.67500
Ni1295     Ni  0.56424192  0.44801470  0.20271553     1.34900
C1296       C  0.64176762  0.48477864  0.07615473     0.83600
O1297       O  0.60481056  0.40790447  0.22355277    -0.80400
O1298       O  0.59941430  0.45311029  0.23940778    -0.90700
C1299       C  0.63695054  0.38164661  0.14805825     0.83200
O1300       O  0.53384529  0.39900962  0.21727616    -0.68900
O1301       O  0.60872307  0.41893406  0.03158664    -0.88200
C1302       C  0.52551560  0.37065133  0.19846451     0.84000
C1303       C  0.61240670  0.43411843  0.24551377     1.05600
H1304       H  0.57332235  0.37625992  0.10305739     0.37400
O1305       O  0.59016532  0.40071471  0.10934082    -1.10900
O1306       O  0.60924956  0.47114697  0.07821702    -0.67500
Ni1307     Ni  0.57083272  0.42822080  0.10434665     1.26300
O1308       O  0.54695779  0.36871757  0.17430253    -0.67700
O1309       O  0.55633124  0.40880237  0.05065562    -0.80000
C1310       C  0.53223270  0.45782916  0.13188882     0.83400
O1311       O  0.54926722  0.45466305  0.10276509    -0.67200
Ni1312     Ni  0.63120315  0.41580868  0.07908149     1.27400
Ni1313     Ni  0.59646162  0.40474508  0.16572043     1.26100
H1314       H  0.61080838  0.46445508  0.15669682     0.38000
C1315       C  0.67535438  0.07019602  0.01601237     0.79100
N1316       N  0.65409364  0.03561316  0.02932644    -0.79200
C1317       C  0.66467961  0.02230229  0.06061906     0.81600
N1318       N  0.69645920  0.04377580  0.07799839    -0.79100
C1319       C  0.71726548  0.07795680  0.06446573     0.81700
N1320       N  0.70609401  0.09000424  0.03408770    -0.80800
C1321       C  0.98903855  0.34054387  0.20646814     0.79100
N1322       N  0.97001066  0.34638431  0.23445791    -0.79200
C1323       C  0.93612579  0.32197593  0.24243766     0.81600
N1324       N  0.92104969  0.29060021  0.22255646    -0.79100
C1325       C  0.93914805  0.28373637  0.19435255     0.81700
N1326       N  0.97342651  0.30898872  0.18589778    -0.80800
O1327       O  0.86277157  0.12293744  0.16550476    -0.82000
O1328       O  0.87229117  0.23999047  0.07031340    -0.66700
O1329       O  0.85206167  0.17604645  0.15953911    -1.13300
C1330       C  0.74972666  0.10576671  0.08381004     1.04900
O1331       O  0.82339838  0.23472291  0.09095696    -0.79900
O1332       O  0.77025880  0.18098429  0.13534575    -0.67500
Ni1333     Ni  0.88783218  0.17161483  0.18055944     1.34900
C1334       C  0.76363010  0.16048332  0.16601946     0.83600
O1335       O  0.90796008  0.24614181  0.13852621    -0.80400
O1336       O  0.91310502  0.22107799  0.19577374    -0.90700
C1337       C  0.85233595  0.25190052  0.07165356     0.83200
O1338       O  0.91719338  0.18172260  0.13253155    -0.68900
O1339       O  0.75708450  0.13679574  0.07336912    -0.88200
C1340       C  0.91179837  0.18254238  0.09444972     0.84000
C1341       C  0.92021279  0.24845163  0.17436114     1.05600
H1342       H  0.82631062  0.16300471  0.06886697     0.37400
O1343       O  0.82195200  0.17137347  0.09423742    -1.10900
O1344       O  0.77921568  0.14377503  0.17125104    -0.67500
Ni1345     Ni  0.81063067  0.13633815  0.13583681     1.26300
O1346       O  0.88934060  0.18952925  0.08235026    -0.67700
O1347       O  0.76852381  0.09987345  0.10794373    -0.80000
C1348       C  0.83397216  0.10064331  0.18280706     0.83400
O1349       O  0.80704362  0.10222406  0.17668511    -0.67200
Ni1350     Ni  0.79068173  0.18513402  0.08245252     1.27400
Ni1351     Ni  0.86509766  0.20823633  0.11464414     1.26100
H1352       H  0.84449674  0.18492043  0.18172779     0.38000
O1353       O  0.74990453  0.37139998  0.09871261    -0.82000
O1354       O  0.90945747  0.45800184  0.08783342    -0.66700
O1355       O  0.81592737  0.39423723  0.12448753    -1.13300
C1356       C  0.83690859  0.49430135  0.19502251     1.04900
O1357       O  0.91931469  0.46157002  0.15446223    -0.79900
O1358       O  0.86717491  0.43388904  0.20982839    -0.67500
Ni1359     Ni  0.78294973  0.35852787  0.08933030     1.34900
C1360       C  0.83570784  0.41809345  0.22118256     0.83600
O1361       O  0.86492618  0.39037556  0.07138043    -0.80400
O1362       O  0.81260494  0.34103470  0.07817321    -0.90700
C1363       C  0.93033778  0.46728969  0.11741246     0.83200
O1364       O  0.79724323  0.38783439  0.04072819    -0.68900
O1365       O  0.86344813  0.99287821  0.20352117    -0.88200
C1366       C  0.81835923  0.42108717  0.03607625     0.84000
C1367       C  0.84445816  0.35719103  0.06793928     1.05600
H1368       H  0.86529991  0.47967618  0.11614005     0.37400
O1369       O  0.85993157  0.45968870  0.13362711    -1.10900
O1370       O  0.81308816  0.41901760  0.20071887    -0.67500
Ni1371     Ni  0.81182360  0.43263886  0.14577215     1.26300
O1372       O  0.84561023  0.43888156  0.05723891    -0.67700
O1373       O  0.81382774  0.47384793  0.16903257    -0.80000
C1374       C  0.74111861  0.37834967  0.13269488     0.83400
O1375       O  0.76276637  0.40313708  0.15559208    -0.67200
Ni1376     Ni  0.89028087  0.47640343  0.17794012     1.27400
Ni1377     Ni  0.86209586  0.42494228  0.10317287     1.26100
H1378       H  0.81756976  0.38145314  0.14748982     0.38000
C1379       C  0.86914560  0.07049192  0.26157414     0.79100
N1380       N  0.85839291  0.03753406  0.24857521    -0.79200
C1381       C  0.83658946  0.02319686  0.21621591     0.81600
N1382       N  0.82532050  0.04234360  0.19684603    -0.79100
C1383       C  0.83475661  0.07505609  0.21076184     0.81700
N1384       N  0.85742730  0.08910840  0.24216143    -0.80800
C1385       C  0.69542757  0.12934964  0.25126796     0.79100
N1386       N  0.72543324  0.13726351  0.23066330    -0.79200
C1387       C  0.73357464  0.15415000  0.19296112     0.81600
N1388       N  0.71125420  0.16244330  0.17648781    -0.79100
C1389       C  0.68081764  0.15317655  0.19585156     0.81700
N1390       N  0.67322851  0.13671877  0.23307209    -0.80800
O1391       O  0.62709924  0.24933773  0.17805920    -0.82000
O1392       O  0.55792370  0.09303833  0.15438103    -0.66700
O1393       O  0.61607776  0.19281448  0.13385485    -1.13300
C1394       C  0.51511123  0.17472509  0.07355029     1.04900
O1395       O  0.55259352  0.09132561  0.08706267    -0.79900
O1396       O  0.57448153  0.14878959  0.04023977    -0.67500
Ni1397     Ni  0.64809140  0.22230651  0.17379548     1.34900
C1398       C  0.59209186  0.18204276  0.03455996     0.83600
O1399       O  0.62511767  0.14101789  0.17524076    -0.80400
O1400       O  0.67107511  0.19674446  0.17096276    -0.90700
C1401       C  0.54620527  0.07540065  0.12148146     0.83200
O1402       O  0.62110396  0.19474714  0.22083702    -0.68900
O1403       O  0.51611681  0.14833530  0.06008416    -0.88200
C1404       C  0.58826885  0.17513993  0.22428764     0.84000
C1405       C  0.65768451  0.16395248  0.17890472     1.05600
H1406       H  0.53371318  0.13954909  0.14071890     0.37400
O1407       O  0.55310487  0.14728853  0.12176463    -1.10900
O1408       O  0.59279411  0.20353025  0.06046038    -0.67500
Ni1409     Ni  0.57777553  0.19760547  0.11751077     1.26300
O1410       O  0.57066769  0.15150058  0.19811683    -0.67700
O1411       O  0.53664046  0.19694510  0.09962545    -0.80000
C1412       C  0.62543433  0.26563628  0.14716357     0.83400
O1413       O  0.60518794  0.24868938  0.11788398    -0.67200
Ni1414     Ni  0.53500237  0.12066259  0.07433906     1.27400
Ni1415     Ni  0.58838719  0.14343372  0.14740571     1.26100
H1416       H  0.62973024  0.19523492  0.10955710     0.38000
C1417       C  0.93384296  0.17554285  0.06530118     0.79100
N1418       N  0.96610036  0.18481964  0.07837986    -0.79200
C1419       C  0.98598307  0.17596311  0.05622187     0.81600
N1420       N  0.97294733  0.15658291  0.02196791    -0.79100
C1421       C  0.94085617  0.14497018  0.50906896     0.81700
N1422       N  0.92075965  0.15450149  0.03088326    -0.80800
C1423       C  0.98530165  0.03385197  0.37431292     0.02000
C1424       C  0.96555085  0.49765420  0.36422109    -0.14100
C1425       C  0.98158356  0.47832819  0.35848205    -0.00500
C1426       C  0.51750719  0.49564600  0.36163001    -0.12600
C1427       C  0.53752424  0.03135361  0.37247160     0.02000
C1428       C  0.52136515  0.05050641  0.37933990    -0.12100
H1429       H  0.93754600  0.48405932  0.36343224     0.07600
H1430       H  0.52985263  0.48059263  0.35800840     0.05100
H1431       H  0.53678424  0.07830097  0.38714229     0.05000
O1432       O  0.58905800  0.04730309  0.33761949    -0.82000
O1433       O  0.74722307  0.11938199  0.37348023    -0.66700
O1434       O  0.64934054  0.06019787  0.37398586    -1.13300
C1435       C  0.65717793  0.16090148  0.43563360     1.04900
O1436       O  0.74722553  0.13771851  0.43654111    -0.79900
O1437       O  0.69007858  0.12267187  0.47988014    -0.67500
Ni1438     Ni  0.62914138  0.04532983  0.32235055     1.34900
C1439       C  0.66950182  0.08898265  0.48112979     0.83600
O1440       O  0.70210660  0.04964953  0.35524213    -0.80400
O1441       O  0.66732834  0.04125773  0.30417459    -0.90700
C1442       C  0.76312344  0.13733274  0.40450914     0.83200
O1443       O  0.65167249  0.09217760  0.29976909    -0.68900
O1444       O  0.68977400  0.17556234  0.43422845    -0.88200
C1445       C  0.68388376  0.10936839  0.29109791     0.84000
C1446       C  0.68373378  0.03107462  0.32557361     1.05600
H1447       H  0.69349870  0.14019696  0.36868944     0.37400
O1448       O  0.69065811  0.12479322  0.39145536    -1.10900
O1449       O  0.64774349  0.07294291  0.45268906    -0.67500
Ni1450     Ni  0.64205729  0.09322655  0.40152396     1.26300
O1451       O  0.70499268  0.10750735  0.31479564    -0.67700
O1452       O  0.63592217  0.12782269  0.42976148    -0.80000
C1453       C  0.57539337  0.04801977  0.37195557     0.83400
O1454       O  0.59286598  0.06087835  0.40454030    -0.67200
Ni1455     Ni  0.71693574  0.15481808  0.43498318     1.27400
Ni1456     Ni  0.69863766  0.08921444  0.37210006     1.26100
H1457       H  0.64191659  0.03942613  0.39105202     0.38000
C1458       C  0.61365968  0.19494697  0.99720599     0.79100
N1459       N  0.62350701  0.17353283  0.48167932    -0.79200
C1460       C  0.64400974  0.18304523  0.44798356     0.81600
N1461       N  0.65485857  0.21458019  0.42906975    -0.79100
C1462       C  0.64404292  0.23612098  0.44296969     0.81700
N1463       N  0.62324698  0.22629931  0.47758821    -0.80800
C1464       C  0.57197397  0.18364519  0.25824054     0.79100
N1465       N  0.53760706  0.16450421  0.26931736    -0.79200
C1466       C  0.52547319  0.17753392  0.29890790     0.81600
N1467       N  0.54751726  0.20915485  0.31694263    -0.79100
C1468       C  0.58144863  0.22762835  0.30576053     0.81700
N1469       N  0.59300922  0.21459329  0.27681620    -0.80800
O1470       O  0.96652630  0.06422599  0.41751927    -0.82000
O1471       O  0.86259274  0.11165497  0.40734150    -0.66700
O1472       O  0.90629976  0.06102298  0.39853512    -1.13300
C1473       C  0.98960202  0.15686507  0.31478777     1.04900
O1474       O  0.87839879  0.13473454  0.34431744    -0.80300
O1475       O  0.91393197  0.12229018  0.29070125    -0.67500
Ni1476     Ni  0.92415544  0.05452524  0.44670476     1.34900
C1477       C  0.89717458  0.08869006  0.29195175     0.83600
O1478       O  0.84608594  0.04581126  0.43191424    -0.80400
O1479       O  0.88109540  0.04090402  0.47558018    -0.90700
C1480       C  0.86410108  0.13173546  0.37900420     0.83200
O1481       O  0.94515747  0.10305625  0.46624553    -0.68900
O1482       O  0.97487073  0.17336807  0.32519234    -0.88200
C1483       C  0.92810575  0.11760536  0.47579428     0.84000
C1484       C  0.85118244  0.02900935  0.46016284     1.05600
H1485       H  0.94223955  0.13885017  0.39704764     0.37400
O1486       O  0.92604681  0.12342801  0.37679292    -1.10900
O1487       O  0.90431481  0.07170633  0.31782304    -0.67500
Ni1488     Ni  0.94011261  0.09206098  0.35981049     1.26300
O1489       O  0.90037093  0.10846802  0.45771099    -0.67700
O1490       O  0.97519664  0.12354248  0.31983082    -0.80000
C1491       C  0.96751569  0.05319893  0.38123567     0.83400
O1492       O  0.95331896  0.05868045  0.35098918    -0.67200
Ni1493     Ni  0.92637935  0.15362134  0.33572510     1.27400
Ni1494     Ni  0.88428619  0.08617281  0.40461190     1.26100
H1495       H  0.89087717  0.03826798  0.38629593     0.38000
C1496       C  0.51577397  0.33970108  0.45314991     0.79100
N1497       N  0.52844412  0.36140525  0.48575278    -0.79200
C1498       C  0.56071596  0.37421074  0.99803486     0.81600
N1499       N  0.57996477  0.36291880  0.48000402    -0.79100
C1500       C  0.56736407  0.33946086  0.44882248     0.81700
N1501       N  0.53562439  0.32921718  0.43356093    -0.80800
O1502       O  0.73237934  0.32955735  0.35009008    -0.82000
O1503       O  0.59548687  0.31127615  0.41836159    -0.66700
O1504       O  0.67129586  0.32944282  0.34707682    -1.13300
C1505       C  0.73652239  0.42149629  0.44089270     1.04900
O1506       O  0.61860734  0.36887272  0.41110857    -0.79900
O1507       O  0.68091993  0.42546336  0.39262548    -0.67500
Ni1508     Ni  0.68468861  0.29704074  0.33695266     1.34900
C1509       C  0.68234519  0.42053870  0.35452968     0.83600
O1510       O  0.60082464  0.27811364  0.34922794    -0.80400
O1511       O  0.63813859  0.26354476  0.32299996    -0.90700
C1512       C  0.59389900  0.33881282  0.42367513     0.83200
O1513       O  0.67675535  0.27635476  0.39023907    -0.68900
O1514       O  0.70805732  0.41261865  0.45978094    -0.88200
C1515       C  0.65258407  0.26726812  0.41663125     0.84000
C1516       C  0.60788631  0.25850690  0.32763348     1.05600
H1517       H  0.67450509  0.34534191  0.43690136     0.37400
O1518       O  0.66889870  0.35540512  0.41425482    -1.10900
O1519       O  0.68909409  0.39764338  0.34165685    -0.67500
Ni1520     Ni  0.70461093  0.37107246  0.37393630     1.26300
O1521       O  0.63440183  0.28140905  0.41792146    -0.67700
O1522       O  0.73799835  0.41247202  0.40395351    -0.80000
C1523       C  0.75045721  0.35982802  0.33281054     0.83400
O1524       O  0.73990020  0.38124091  0.33328161    -0.67200
Ni1525     Ni  0.66279781  0.39067482  0.43619634     1.27400
Ni1526     Ni  0.63302846  0.31689996  0.38322167     1.26100
H1527       H  0.66657946  0.33588043  0.32069746     0.38000
O1528       O  0.95731367  0.42802052  0.40040678    -0.82000
O1529       O  0.89985530  0.26798643  0.39843296    -0.66700
O1530       O  0.95474548  0.36692229  0.37537517    -1.13300
C1531       C  0.85166559  0.34819861  0.31875934     1.04900
O1532       O  0.87366257  0.25626608  0.33914149    -0.79900
O1533       O  0.88520324  0.30381999  0.28231854    -0.67500
Ni1534     Ni  0.97185448  0.39747430  0.42045166     1.34900
C1535       C  0.91707881  0.32754531  0.27613230     0.83600
O1536       O  0.96821679  0.31831317  0.40710825    -0.80400
O1537       O  0.98769551  0.36885102  0.44250860    -0.90700
C1538       C  0.87698167  0.24647151  0.37427454     0.83200
O1539       O  0.93091393  0.37466664  0.45419974    -0.68900
O1540       O  0.83741379  0.31511326  0.32475715    -0.88200
C1541       C  0.91446135  0.34235777  0.46466904     0.84000
C1542       C  0.98856207  0.34144981  0.43269923     1.05600
H1543       H  0.87777439  0.32190440  0.39148146     0.37400
O1544       O  0.89078070  0.32129868  0.36807199    -1.10900
O1545       O  0.93351989  0.35465095  0.29892932    -0.67500
Ni1546     Ni  0.91976563  0.36893679  0.34819276     1.26300
O1547       O  0.91566384  0.31930968  0.44357265    -0.67700
O1548       O  0.88398177  0.37052269  0.32121026    -0.80000
C1549       C  0.96178651  0.43961861  0.36373911     0.83400
O1550       O  0.95099268  0.41822330  0.33379447    -0.67200
Ni1551     Ni  0.85727040  0.28703889  0.33212828     1.27400
Ni1552     Ni  0.92838420  0.31753404  0.38754145     1.26100
H1553       H  0.97378749  0.37247380  0.35674518     0.38000
C1554       C  0.83076061  0.36179174  0.30549454     0.79100
N1555       N  0.84251040  0.38392267  0.27270718    -0.79200
C1556       C  0.82445732  0.39767560  0.25889283     0.81600
N1557       N  0.79497114  0.39060396  0.27888216    -0.79100
C1558       C  0.78335939  0.36908599  0.31264301     0.81700
N1559       N  0.80088000  0.35379136  0.32546291    -0.80800
C1560       C  0.76917625  0.44123612  0.46296277     0.79100
N1561       N  0.77807105  0.42318173  0.98852110    -0.79200
C1562       C  0.80959352  0.43996678  0.00632645     0.81600
N1563       N  0.83186719  0.47501245  0.99897658    -0.79100
C1564       C  0.82346629  0.99334354  0.47332688     0.81700
N1565       N  0.79228975  0.47622535  0.45455406    -0.80800
C1566       C  0.63973714  0.44643487  0.27640796     0.79100
N1567       N  0.65044839  0.42672223  0.29627894    -0.79200
C1568       C  0.67515476  0.44240212  0.32622721     0.81600
N1569       N  0.68767442  0.47712540  0.33636025    -0.79100
C1570       C  0.67776364  0.49638094  0.31460551     0.81700
N1571       N  0.65426368  0.48050148  0.28544916    -0.80800
C1572       C  0.80042148  0.15623015  0.40320924     0.02000
C1573       C  0.82058658  0.19313439  0.39645541    -0.14100
C1574       C  0.85587265  0.20930548  0.38552234    -0.00500
C1575       C  0.87023406  0.18891450  0.38062543    -0.12600
C1576       C  0.84955553  0.15249346  0.38675584     0.02000
C1577       C  0.81520378  0.13611313  0.39924478    -0.12100
H1578       H  0.80866002  0.20868493  0.39753540     0.07600
H1579       H  0.89719085  0.20119366  0.37084719     0.05100
H1580       H  0.79939618  0.10745836  0.40286533     0.05000
C1581       C  0.51708004  0.47889139  0.62422759     0.02000
C1582       C  0.53826578  0.01585533  0.62683008    -0.14100
C1583       C  0.52411157  0.03670218  0.62171063    -0.00500
C1584       C  0.98886732  0.02054539  0.61295201    -0.12600
C1585       C  0.96749134  0.48352977  0.61112139     0.02000
C1586       C  0.98171293  0.46267506  0.61689875    -0.12100
H1587       H  0.56565395  0.02831397  0.63282100     0.07600
H1588       H  0.97767476  0.03668581  0.60995653     0.05100
H1589       H  0.96506832  0.43399192  0.61778190     0.05000
C1590       C  0.70414849  0.35923272  0.64304096     0.02000
C1591       C  0.68347478  0.32190728  0.64203689    -0.14100
C1592       C  0.64716037  0.30437361  0.64627774    -0.00500
C1593       C  0.63189828  0.32413930  0.65076702    -0.12600
C1594       C  0.65272642  0.36113598  0.65117085     0.02000
C1595       C  0.68868274  0.37857254  0.64858031    -0.12100
H1596       H  0.69550378  0.30668616  0.63740736     0.07600
H1597       H  0.60388245  0.31079008  0.65261914     0.05100
H1598       H  0.70452212  0.40733495  0.64795999     0.05000
C1599       C  0.89334009  0.33050748  0.00235293     0.79100
N1600       N  0.88441217  0.29895647  0.51989894    -0.79200
C1601       C  0.86253831  0.28622820  0.55303050     0.81600
N1602       N  0.84880680  0.30475391  0.56796751    -0.79100
C1603       C  0.85831291  0.33672155  0.55109735     0.81700
N1604       N  0.88079359  0.34969929  0.51842758    -0.80800
O1605       O  0.52885844  0.44476857  0.66787934    -0.82000
O1606       O  0.60754248  0.37025784  0.66494044    -0.66700
O1607       O  0.58846654  0.44258244  0.65895161    -1.13300
C1608       C  0.57585464  0.40251795  0.52780130     1.04900
O1609       O  0.65238002  0.41053653  0.62693426    -0.79900
O1610       O  0.65460344  0.46662537  0.58651925    -0.67500
Ni1611     Ni  0.56426032  0.44804418  0.70272923     1.34900
C1612       C  0.64175168  0.48478565  0.57615419     0.83600
O1613       O  0.60480689  0.40789880  0.72354819    -0.80400
O1614       O  0.59942629  0.45310975  0.73941396    -0.90700
C1615       C  0.63693050  0.38163856  0.64807231     0.83200
O1616       O  0.53383297  0.39903674  0.71726588    -0.68900
O1617       O  0.60871115  0.41894764  0.53159326    -0.88200
C1618       C  0.52550436  0.37067327  0.69846466     0.84000
C1619       C  0.61241210  0.43411143  0.74551329     1.05600
H1620       H  0.57330694  0.37626706  0.60305908     0.37400
O1621       O  0.59015143  0.40072158  0.60934251    -1.10900
O1622       O  0.60923379  0.47115421  0.57821718    -0.67500
Ni1623     Ni  0.57082043  0.42823057  0.60435374     1.26300
O1624       O  0.54694651  0.36873176  0.67431050    -0.67700
O1625       O  0.55631832  0.40881390  0.55066399    -0.80000
C1626       C  0.53222756  0.45785640  0.63190078     0.83400
O1627       O  0.54924863  0.45466952  0.60277554    -0.67200
Ni1628     Ni  0.63118895  0.41581249  0.57908305     1.27400
Ni1629     Ni  0.59645082  0.40474925  0.66571912     1.26100
H1630       H  0.61080888  0.46446333  0.65669295     0.38000
C1631       C  0.67533552  0.07021144  0.51601802     0.79100
N1632       N  0.65407314  0.03562681  0.52933009    -0.79200
C1633       C  0.66466222  0.02231088  0.56061605     0.81600
N1634       N  0.69644464  0.04378132  0.57798957    -0.79100
C1635       C  0.71725131  0.07796208  0.56445798     0.81700
N1636       N  0.70607755  0.09001355  0.53408788    -0.80800
C1637       C  0.98902694  0.34056496  0.70646915     0.79100
N1638       N  0.97000175  0.34639755  0.73447173    -0.79200
C1639       C  0.93611664  0.32198713  0.74244995     0.81600
N1640       N  0.92103759  0.29061889  0.72255274    -0.79100
C1641       C  0.93913283  0.28376265  0.69433599     0.81700
N1642       N  0.97341201  0.30901583  0.68588531    -0.80800
O1643       O  0.86276635  0.12294820  0.66553172    -0.82000
O1644       O  0.87226325  0.24000646  0.57029955    -0.66700
O1645       O  0.85204724  0.17605794  0.65952456    -1.13300
C1646       C  0.74971490  0.10576988  0.58379748     1.04900
O1647       O  0.82336529  0.23472575  0.59093909    -0.79900
O1648       O  0.77024188  0.18099031  0.63532812    -0.67500
Ni1649     Ni  0.88782324  0.17163572  0.68055200     1.34900
C1650       C  0.76361100  0.16048398  0.66599550     0.83600
O1651       O  0.90793231  0.24616791  0.63851262    -0.80400
O1652       O  0.91309955  0.22110549  0.69574581    -0.90700
C1653       C  0.85230072  0.25190769  0.57163504     0.83200
O1654       O  0.91716703  0.18172189  0.63251207    -0.68900
O1655       O  0.75706912  0.13679784  0.57335955    -0.88200
C1656       C  0.91177939  0.18256028  0.59443046     0.84000
C1657       C  0.92019674  0.24847858  0.67433981     1.05600
H1658       H  0.82629936  0.16301760  0.56884990     0.37400
O1659       O  0.82193676  0.17138236  0.59422097    -1.10900
O1660       O  0.77919770  0.14377633  0.67122560    -0.67500
Ni1661     Ni  0.81062027  0.13634517  0.63582015     1.26300
O1662       O  0.88933069  0.18956101  0.58233411    -0.67700
O1663       O  0.76851636  0.09987744  0.60792457    -0.80000
C1664       C  0.83396125  0.10065290  0.68282291     0.83400
O1665       O  0.80703299  0.10223026  0.67667608    -0.67200
Ni1666     Ni  0.79065999  0.18513645  0.58243590     1.27400
Ni1667     Ni  0.86507646  0.20825256  0.61463043     1.26100
H1668       H  0.84447750  0.18492678  0.68171372     0.38000
O1669       O  0.74987457  0.37142057  0.59874793    -0.82000
O1670       O  0.90941656  0.45799367  0.58784384    -0.66700
O1671       O  0.81589165  0.39423230  0.62450641    -1.13300
C1672       C  0.83688520  0.49430097  0.69506496     1.04900
O1673       O  0.91927705  0.46155274  0.65447052    -0.79900
O1674       O  0.86717979  0.43391920  0.70986942    -0.67500
Ni1675     Ni  0.78290713  0.35853367  0.58934560     1.34900
C1676       C  0.83571181  0.41810193  0.72121757     0.83600
O1677       O  0.86487772  0.39037177  0.57137767    -0.80400
O1678       O  0.81255422  0.34103283  0.57817325    -0.90700
C1679       C  0.93029751  0.46726938  0.61742041     0.83200
O1680       O  0.79720274  0.38784308  0.54074404    -0.68900
O1681       O  0.86344451  0.99290308  0.70353325    -0.88200
C1682       C  0.81832498  0.42109460  0.53608891     0.84000
C1683       C  0.84440600  0.35718784  0.56793012     1.05600
H1684       H  0.86525382  0.47966690  0.61616827     0.37400
O1685       O  0.85989572  0.45968195  0.63365386    -1.10900
O1686       O  0.81307909  0.41900151  0.70075266    -0.67500
Ni1687     Ni  0.81179119  0.43262775  0.64581773     1.26300
O1688       O  0.84557120  0.43888656  0.55725933    -0.67700
O1689       O  0.81379096  0.47382930  0.66909820    -0.80000
C1690       C  0.74108968  0.37834152  0.63275025     0.83400
O1691       O  0.76273838  0.40311769  0.65565755    -0.67200
Ni1692     Ni  0.89026438  0.47641204  0.67794938     1.27400
Ni1693     Ni  0.86205582  0.42493754  0.60318580     1.26100
H1694       H  0.81753628  0.38144232  0.64750069     0.38000
C1695       C  0.86912011  0.07049363  0.76160953     0.79100
N1696       N  0.85836132  0.03753211  0.74861857    -0.79200
C1697       C  0.83655871  0.02319364  0.71625910     0.81600
N1698       N  0.82529541  0.04234353  0.69688105    -0.79100
C1699       C  0.83473739  0.07506119  0.71078755     0.81700
N1700       N  0.85740715  0.08911265  0.74218907    -0.80800
C1701       C  0.69542583  0.12934764  0.75125539     0.79100
N1702       N  0.72542781  0.13726729  0.73064072    -0.79200
C1703       C  0.73355306  0.15414301  0.69293454     0.81600
N1704       N  0.71121966  0.16242150  0.67646392    -0.79100
C1705       C  0.68078417  0.15315029  0.69583769     0.81700
N1706       N  0.67321269  0.13670243  0.73306499    -0.80800
O1707       O  0.62705396  0.24931335  0.67809379    -0.82000
O1708       O  0.55786757  0.09303463  0.65438729    -0.66700
O1709       O  0.61603646  0.19280640  0.63387037    -1.13300
C1710       C  0.51509431  0.17476085  0.57353577     1.04900
O1711       O  0.55252225  0.09131799  0.58706854    -0.79900
O1712       O  0.57444700  0.14880068  0.54024877    -0.67500
Ni1713     Ni  0.64805113  0.22228701  0.67381618     1.34900
C1714       C  0.59206010  0.18205490  0.53456782     0.83600
O1715       O  0.62507318  0.14099870  0.67524185    -0.80400
O1716       O  0.67103489  0.19672334  0.67096901    -0.90700
C1717       C  0.54613984  0.07539681  0.62148994     0.83200
O1718       O  0.62107051  0.19471882  0.72085509    -0.68900
O1719       O  0.51609452  0.14836799  0.56007283    -0.88200
C1720       C  0.58823577  0.17512268  0.72430893     0.84000
C1721       C  0.65764367  0.16392928  0.67890325     1.05600
H1722       H  0.53366978  0.13955753  0.64072669     0.37400
O1723       O  0.55306111  0.14729437  0.62177251    -1.10900
O1724       O  0.59276733  0.20354261  0.56047253    -0.67500
Ni1725     Ni  0.57774163  0.19761208  0.61752312     1.26300
O1726       O  0.57062625  0.15149435  0.69813071    -0.67700
O1727       O  0.53661601  0.19696904  0.59962585    -0.80000
C1728       C  0.62540088  0.26562659  0.64720510     0.83400
O1729       O  0.60516222  0.24869425  0.61791373    -0.67200
Ni1730     Ni  0.53495766  0.12067788  0.57433936     1.27400
Ni1731     Ni  0.58833984  0.14342688  0.64741411     1.26100
H1732       H  0.62968913  0.19522623  0.60957333     0.38000
C1733       C  0.93382633  0.17556989  0.56527605     0.79100
N1734       N  0.96608797  0.18485921  0.57834981    -0.79200
C1735       C  0.98597521  0.17600864  0.55619293     0.81600
N1736       N  0.97294030  0.15662380  0.52194063    -0.79100
C1737       C  0.94086923  0.14494600  0.00908866     0.81700
N1738       N  0.92074168  0.15451891  0.53086513    -0.80800
C1739       C  0.98532423  0.03385737  0.87429471     0.02000
C1740       C  0.96557704  0.49765233  0.86422864    -0.14100
C1741       C  0.98161575  0.47832989  0.85850078    -0.00500
C1742       C  0.51753995  0.49565572  0.86163457    -0.12600
C1743       C  0.53755418  0.03136728  0.87245490     0.02000
C1744       C  0.52139178  0.05052018  0.87930911    -0.12100
H1745       H  0.93757132  0.48405002  0.86345333     0.07600
H1746       H  0.52988911  0.48060503  0.85802121     0.05100
H1747       H  0.53680947  0.07831762  0.88709908     0.05000
O1748       O  0.58908473  0.04730202  0.83760690    -0.82000
O1749       O  0.74724165  0.11936943  0.87347914    -0.66700
O1750       O  0.64936262  0.06018482  0.87396756    -1.13300
C1751       C  0.65721939  0.16089905  0.93562790     1.04900
O1752       O  0.74718949  0.13762442  0.93656733    -0.79900
O1753       O  0.69006182  0.12265074  0.97988795    -0.67500
Ni1754     Ni  0.62916534  0.04532510  0.82233247     1.34900
C1755       C  0.66951118  0.08895971  0.98112619     0.83600
O1756       O  0.70213434  0.04964349  0.85521529    -0.80400
O1757       O  0.66735451  0.04125447  0.80415118    -0.90700
C1758       C  0.76311542  0.13728631  0.90453831     0.83200
O1759       O  0.65169078  0.09217584  0.79976864    -0.68900
O1760       O  0.68981592  0.17555608  0.93421730    -0.88200
C1761       C  0.68389897  0.10936864  0.79108861     0.84000
C1762       C  0.68376038  0.03106950  0.82554812     1.05600
H1763       H  0.69352384  0.14018659  0.86869259     0.37400
O1764       O  0.69067936  0.12477555  0.89145188    -1.10900
O1765       O  0.64776761  0.07291621  0.95267358    -0.67500
Ni1766     Ni  0.64208327  0.09321376  0.90151709     1.26300
O1767       O  0.70501358  0.10750636  0.81477753    -0.67700
O1768       O  0.63595978  0.12781717  0.92976504    -0.80000
C1769       C  0.57542224  0.04802716  0.87194122     0.83400
O1770       O  0.59289249  0.06087353  0.90452971    -0.67200
Ni1771     Ni  0.71694958  0.15478018  0.93499456     1.27400
Ni1772     Ni  0.69865953  0.08920202  0.87208198     1.26100
H1773       H  0.64193905  0.03941050  0.89102885     0.38000
C1774       C  0.61362658  0.19495795  0.49720864     0.79100
N1775       N  0.62354390  0.17352583  0.98167316    -0.79200
C1776       C  0.64405408  0.18304675  0.94798300     0.81600
N1777       N  0.65490476  0.21458723  0.92907841    -0.79100
C1778       C  0.64408150  0.23612185  0.94298388     0.81700
N1779       N  0.62328068  0.22629074  0.97759600    -0.80800
C1780       C  0.57195296  0.18363046  0.75827171     0.79100
N1781       N  0.53758402  0.16450789  0.76933484    -0.79200
C1782       C  0.52545779  0.17754287  0.79892643     0.81600
N1783       N  0.54751147  0.20915351  0.81697572    -0.79100
C1784       C  0.58144689  0.22760764  0.80580943     0.81700
N1785       N  0.59300039  0.21456618  0.77686493    -0.80800
O1786       O  0.96652686  0.06419959  0.91752569    -0.82000
O1787       O  0.86258997  0.11163825  0.90738468    -0.66700
O1788       O  0.90630549  0.06101776  0.89854368    -1.13300
C1789       C  0.98958773  0.15687599  0.81480374     1.04900
O1790       O  0.87838690  0.13473560  0.84436874    -0.80300
O1791       O  0.91390668  0.12229380  0.79073435    -0.67500
Ni1792     Ni  0.92416035  0.05451472  0.94671140     1.34900
C1793       C  0.89715506  0.08869357  0.79198158     0.83600
O1794       O  0.84608941  0.04579806  0.93192609    -0.80400
O1795       O  0.88110524  0.04090715  0.97559286    -0.90700
C1796       C  0.86409790  0.13172924  0.87906293     0.83200
O1797       O  0.94517282  0.10305003  0.96623727    -0.68900
O1798       O  0.97485473  0.17337617  0.82521222    -0.88200
C1799       C  0.92811845  0.11759245  0.97580372     0.84000
C1800       C  0.85119095  0.02900189  0.96017481     1.05600
H1801       H  0.94223523  0.13884723  0.89707076     0.37400
O1802       O  0.92604224  0.12342569  0.87681604    -1.10900
O1803       O  0.90430884  0.07171126  0.81783993    -0.67500
Ni1804     Ni  0.94011343  0.09206472  0.85982204     1.26300
O1805       O  0.90037704  0.10845148  0.95773408    -0.67700
O1806       O  0.97518628  0.12355369  0.81984137    -0.80000
C1807       C  0.96752768  0.05319616  0.88123134     0.83400
O1808       O  0.95333315  0.05869069  0.85099020    -0.67200
Ni1809     Ni  0.92636481  0.15362389  0.83576031     1.27400
Ni1810     Ni  0.88428699  0.08616307  0.90463267     1.26100
H1811       H  0.89088469  0.03826418  0.88630061     0.38000
C1812       C  0.51577194  0.33963747  0.95317644     0.79100
N1813       N  0.52843896  0.36134246  0.98578246    -0.79200
C1814       C  0.56070470  0.37423334  0.49803555     0.81600
N1815       N  0.57999133  0.36292521  0.97998115    -0.79100
C1816       C  0.56738945  0.33945600  0.94881227     0.81700
N1817       N  0.53563603  0.32917899  0.93357266    -0.80800
O1818       O  0.73239463  0.32954081  0.85008191    -0.82000
O1819       O  0.59550661  0.31127036  0.91836057    -0.66700
O1820       O  0.67131276  0.32942701  0.84708789    -1.13300
C1821       C  0.73653239  0.42148602  0.94090840     1.04900
O1822       O  0.61862750  0.36886511  0.91108946    -0.79900
O1823       O  0.68094385  0.42545881  0.89262230    -0.67500
Ni1824     Ni  0.68469775  0.29701357  0.83699076     1.34900
C1825       C  0.68235993  0.42052687  0.85452680     0.83600
O1826       O  0.60083971  0.27811654  0.84923291    -0.80400
O1827       O  0.63813498  0.26349318  0.82308860    -0.90700
C1828       C  0.59391896  0.33880737  0.92366134     0.83200
O1829       O  0.67681943  0.27639799  0.89030478    -0.68900
O1830       O  0.70806582  0.41260847  0.95979320    -0.88200
C1831       C  0.65261946  0.26727521  0.91666153     0.84000
C1832       C  0.60788970  0.25848072  0.82768395     1.05600
H1833       H  0.67451795  0.34533012  0.93691450     0.37400
O1834       O  0.66891356  0.35539319  0.91426586    -1.10900
O1835       O  0.68910250  0.39762535  0.84165979    -0.67500
Ni1836     Ni  0.70462393  0.37106055  0.87394804     1.26300
O1837       O  0.63440855  0.28138603  0.91792192    -0.67700
O1838       O  0.73800909  0.41246451  0.90396706    -0.80000
C1839       C  0.75046836  0.35981762  0.83281836     0.83400
O1840       O  0.73991029  0.38122912  0.83329630    -0.67200
Ni1841     Ni  0.66281149  0.39066745  0.93619329     1.27400
Ni1842     Ni  0.63304597  0.31689106  0.88322884     1.26100
H1843       H  0.66659895  0.33585951  0.82070371     0.38000
O1844       O  0.95739046  0.42803190  0.90044129    -0.82000
O1845       O  0.89984121  0.26796613  0.89847221    -0.66700
O1846       O  0.95476663  0.36689993  0.87539158    -1.13300
C1847       C  0.85169108  0.34822182  0.81880521     1.04900
O1848       O  0.87362125  0.25623609  0.83919740    -0.79900
O1849       O  0.88520628  0.30380098  0.78236786    -0.67500
Ni1850     Ni  0.97191876  0.39746599  0.92045556     1.34900
C1851       C  0.91707431  0.32754244  0.77616204     0.83600
O1852       O  0.96821184  0.31826348  0.90713346    -0.80400
O1853       O  0.98775190  0.36883350  0.94248654    -0.90700
C1854       C  0.87695235  0.24644937  0.87432915     0.83200
O1855       O  0.93100406  0.37467832  0.95425026    -0.68900
O1856       O  0.83743554  0.31513448  0.82478467    -0.88200
C1857       C  0.91452975  0.34236616  0.96471201     0.84000
C1858       C  0.98857620  0.34140405  0.93270998     1.05600
H1859       H  0.87779309  0.32190398  0.89152705     0.37400
O1860       O  0.89079254  0.32129489  0.86811177    -1.10900
O1861       O  0.93351535  0.35465182  0.79895311    -0.67500
Ni1862     Ni  0.91978596  0.36893516  0.84823697     1.26300
O1863       O  0.91568998  0.31930348  0.94359789    -0.67700
O1864       O  0.88400431  0.37054427  0.82128356    -0.80000
C1865       C  0.96183106  0.43962083  0.86377265     0.83400
O1866       O  0.95101878  0.41821950  0.83383494    -0.67200
Ni1867     Ni  0.85726702  0.28703999  0.83217322     1.27400
Ni1868     Ni  0.92838912  0.31751060  0.88756796     1.26100
H1869       H  0.97379558  0.37243641  0.85674652     0.38000
C1870       C  0.83079003  0.36181769  0.80553659     0.79100
N1871       N  0.84253867  0.38394931  0.77274861    -0.79200
C1872       C  0.82447448  0.39768889  0.75892789     0.81600
N1873       N  0.79498331  0.39060529  0.77890946    -0.79100
C1874       C  0.78337487  0.36908821  0.81266743     0.81700
N1875       N  0.80090174  0.35380333  0.82549403    -0.80800
C1876       C  0.76918736  0.44122670  0.96298092     0.79100
N1877       N  0.77805411  0.42319077  0.48850940    -0.79200
C1878       C  0.80957106  0.43997537  0.50632597     0.81600
N1879       N  0.83184680  0.47502123  0.49897679    -0.79100
C1880       C  0.82348029  0.99333415  0.97333598     0.81700
N1881       N  0.79230008  0.47621587  0.95457103    -0.80800
C1882       C  0.63974851  0.44642336  0.77640115     0.79100
N1883       N  0.65045695  0.42670831  0.79627476    -0.79200
C1884       C  0.67516816  0.44238936  0.82621930     0.81600
N1885       N  0.68769459  0.47711608  0.83634423    -0.79100
C1886       C  0.67778640  0.49637280  0.81458589     0.81700
N1887       N  0.65428266  0.48049197  0.78543505    -0.80800
C1888       C  0.80041006  0.15620032  0.90327365     0.02000
C1889       C  0.82056102  0.19310273  0.89650360    -0.14100
C1890       C  0.85585064  0.20928488  0.88558491    -0.00500
C1891       C  0.87022393  0.18890372  0.88070357    -0.12600
C1892       C  0.84955394  0.15248314  0.88683881     0.02000
C1893       C  0.81520449  0.13609486  0.89933342    -0.12100
H1894       H  0.80862188  0.20864183  0.89756084     0.07600
H1895       H  0.89718106  0.20118854  0.87092432     0.05100
H1896       H  0.79940414  0.10743980  0.90295814     0.05000
C1897       C  0.51710288  0.97888143  0.12423209     0.02000
C1898       C  0.53830432  0.51584518  0.12682305    -0.14100
C1899       C  0.52416471  0.53670540  0.12169891    -0.00500
C1900       C  0.98892045  0.52056018  0.11294015    -0.12600
C1901       C  0.96753157  0.98354429  0.11111623     0.02000
C1902       C  0.98173890  0.96267884  0.11690226    -0.12100
H1903       H  0.56569200  0.52829258  0.13280949     0.07600
H1904       H  0.97773840  0.53670976  0.10993938     0.05100
H1905       H  0.96508509  0.93399645  0.11778740     0.05000
C1906       C  0.70417515  0.85924629  0.14297474     0.02000
C1907       C  0.68350359  0.82192043  0.14198513    -0.14100
C1908       C  0.64718855  0.80438406  0.14621640    -0.00500
C1909       C  0.63192312  0.82414738  0.15069685    -0.12600
C1910       C  0.65274909  0.86114397  0.15110682     0.02000
C1911       C  0.68870629  0.87858458  0.14849941    -0.12100
H1912       H  0.69553552  0.80670006  0.13737454     0.07600
H1913       H  0.60390727  0.81079613  0.15255374     0.05100
H1914       H  0.70454435  0.90734704  0.14787361     0.05000
C1915       C  0.89326241  0.83049320  0.50230465     0.79100
N1916       N  0.88447738  0.79896392  0.01993972    -0.79200
C1917       C  0.86258726  0.78622804  0.05305678     0.81600
N1918       N  0.84885224  0.80475303  0.06798479    -0.79100
C1919       C  0.85837120  0.83672677  0.05112173     0.81700
N1920       N  0.88086707  0.84971136  0.01846754    -0.80800
O1921       O  0.52883088  0.94469433  0.16784643    -0.82000
O1922       O  0.60756764  0.87026155  0.16494592    -0.66700
O1923       O  0.58846884  0.94257017  0.15894861    -1.13300
C1924       C  0.57586600  0.90250305  0.02779496     1.04900
O1925       O  0.65239287  0.91055251  0.12693939    -0.79900
O1926       O  0.65461911  0.96661851  0.08651313    -0.67500
Ni1927     Ni  0.56424199  0.94801477  0.20271551     1.34900
C1928       C  0.64176764  0.98477866  0.07615470     0.83600
O1929       O  0.60481050  0.90790442  0.22355281    -0.80400
O1930       O  0.59941436  0.95311032  0.23940775    -0.90700
C1931       C  0.63695052  0.88164660  0.14805827     0.83200
O1932       O  0.53384531  0.89900968  0.21727613    -0.68900
O1933       O  0.60872306  0.91893397  0.03158662    -0.88200
C1934       C  0.52551560  0.87065138  0.19846449     0.84000
C1935       C  0.61240671  0.93411842  0.24551376     1.05600
H1936       H  0.57332230  0.87625986  0.10305737     0.37400
O1937       O  0.59016533  0.90071473  0.10934083    -1.10900
O1938       O  0.60924959  0.97114699  0.07821702    -0.67500
Ni1939     Ni  0.57083274  0.92822082  0.10434663     1.26300
O1940       O  0.54695778  0.86871758  0.17430253    -0.67700
O1941       O  0.55633127  0.90880242  0.05065558    -0.80000
C1942       C  0.53223277  0.95782923  0.13188881     0.83400
O1943       O  0.54926728  0.95466310  0.10276508    -0.67200
Ni1944     Ni  0.63120314  0.91580865  0.07908151     1.27400
Ni1945     Ni  0.59646160  0.90474505  0.16572044     1.26100
H1946       H  0.61080840  0.96445505  0.15669681     0.38000
C1947       C  0.67535437  0.57019595  0.01601234     0.79100
N1948       N  0.65409362  0.53561311  0.02932644    -0.79200
C1949       C  0.66467960  0.52230224  0.06061906     0.81600
N1950       N  0.69645920  0.54377574  0.07799837    -0.79100
C1951       C  0.71726549  0.57795674  0.06446570     0.81700
N1952       N  0.70609403  0.59000417  0.03408764    -0.80800
C1953       C  0.98903856  0.84054394  0.20646816     0.79100
N1954       N  0.97001067  0.84638439  0.23445792    -0.79200
C1955       C  0.93612580  0.82197601  0.24243766     0.81600
N1956       N  0.92104970  0.79060029  0.22255645    -0.79100
C1957       C  0.93914805  0.78373646  0.19435254     0.81700
N1958       N  0.97342652  0.80898881  0.18589778    -0.80800
O1959       O  0.86277163  0.62293753  0.16550478    -0.82000
O1960       O  0.87229118  0.73999050  0.07031338    -0.66700
O1961       O  0.85206170  0.67604653  0.15953912    -1.13300
C1962       C  0.74972666  0.60576667  0.08381005     1.04900
O1963       O  0.82339835  0.73472286  0.09095690    -0.79900
O1964       O  0.77025874  0.68098424  0.13534569    -0.67500
Ni1965     Ni  0.88783221  0.67161493  0.18055945     1.34900
C1966       C  0.76363009  0.66048332  0.16601944     0.83600
O1967       O  0.90796011  0.74614189  0.13852619    -0.80400
O1968       O  0.91310502  0.72107810  0.19577375    -0.90700
C1969       C  0.85233592  0.75190050  0.07165351     0.83200
O1970       O  0.91719342  0.68172269  0.13253155    -0.68900
O1971       O  0.75708447  0.63679568  0.07336913    -0.88200
C1972       C  0.91179841  0.68254246  0.09444972     0.84000
C1973       C  0.92021280  0.74845173  0.17436113     1.05600
H1974       H  0.82631064  0.66300472  0.06886698     0.37400
O1975       O  0.82195201  0.67137349  0.09423741    -1.10900
O1976       O  0.77921572  0.64377509  0.17125106    -0.67500
Ni1977     Ni  0.81063070  0.63633819  0.13583683     1.26300
O1978       O  0.88934065  0.68952934  0.08235026    -0.67700
O1979       O  0.76852383  0.59987344  0.10794376    -0.80000
C1980       C  0.83397222  0.60064337  0.18280707     0.83400
O1981       O  0.80704367  0.60222412  0.17668515    -0.67200
Ni1982     Ni  0.79068170  0.68513398  0.08245249     1.27400
Ni1983     Ni  0.86509768  0.70823639  0.11464413     1.26100
H1984       H  0.84449678  0.68492051  0.18172775     0.38000
O1985       O  0.74990457  0.87140006  0.09871256    -0.82000
O1986       O  0.90945748  0.95800186  0.08783343    -0.66700
O1987       O  0.81592736  0.89423724  0.12448750    -1.13300
C1988       C  0.83690857  0.99430135  0.19502253     1.04900
O1989       O  0.91931470  0.96157007  0.15446225    -0.79900
O1990       O  0.86717487  0.93388903  0.20982839    -0.67500
Ni1991     Ni  0.78294973  0.85852788  0.08933030     1.34900
C1992       C  0.83570779  0.91809342  0.22118254     0.83600
O1993       O  0.86492617  0.89037555  0.07138042    -0.80400
O1994       O  0.81260492  0.84103468  0.07817328    -0.90700
C1995       C  0.93033780  0.96728974  0.11741247     0.83200
O1996       O  0.79724329  0.88783437  0.04072815    -0.68900
O1997       O  0.86344819  0.49287825  0.20352111    -0.88200
C1998       C  0.81835925  0.92108716  0.03607624     0.84000
C1999       C  0.84445814  0.85719102  0.06793930     1.05600
H2000       H  0.86529992  0.97967622  0.11614004     0.37400
O2001       O  0.85993156  0.95968869  0.13362713    -1.10900
O2002       O  0.81308811  0.91901756  0.20071885    -0.67500
Ni2003     Ni  0.81182359  0.93263888  0.14577214     1.26300
O2004       O  0.84561024  0.93888157  0.05723891    -0.67700
O2005       O  0.81382772  0.97384795  0.16903257    -0.80000
C2006       C  0.74111862  0.87834970  0.13269485     0.83400
O2007       O  0.76276636  0.90313712  0.15559205    -0.67200
Ni2008     Ni  0.89028083  0.97640343  0.17794014     1.27400
Ni2009     Ni  0.86209586  0.92494228  0.10317287     1.26100
H2010       H  0.81756976  0.88145313  0.14748982     0.38000
C2011       C  0.86914556  0.57049185  0.26157419     0.79100
N2012       N  0.85839282  0.53753397  0.24857528    -0.79200
C2013       C  0.83658944  0.52319683  0.21621590     0.81600
N2014       N  0.82532057  0.54234362  0.19684597    -0.79100
C2015       C  0.83475668  0.57505611  0.21076180     0.81700
N2016       N  0.85742733  0.58910837  0.24216142    -0.80800
C2017       C  0.69542755  0.62934959  0.25126795     0.79100
N2018       N  0.72543323  0.63726348  0.23066329    -0.79200
C2019       C  0.73357463  0.65414998  0.19296112     0.81600
N2020       N  0.71125420  0.66244328  0.17648782    -0.79100
C2021       C  0.68081765  0.65317654  0.19585157     0.81700
N2022       N  0.67322849  0.63671873  0.23307209    -0.80800
O2023       O  0.62709920  0.74933770  0.17805919    -0.82000
O2024       O  0.55792374  0.59303833  0.15438103    -0.66700
O2025       O  0.61607778  0.69281449  0.13385481    -1.13300
C2026       C  0.51511120  0.67472503  0.07355030     1.04900
O2027       O  0.55259353  0.59132560  0.08706268    -0.79900
O2028       O  0.57448154  0.64878959  0.04023980    -0.67500
Ni2029     Ni  0.64809141  0.72230652  0.17379547     1.34900
C2030       C  0.59209184  0.68204276  0.03455997     0.83600
O2031       O  0.62511771  0.64101793  0.17524077    -0.80400
O2032       O  0.67107515  0.69674450  0.17096279    -0.90700
C2033       C  0.54620527  0.57540064  0.12148147     0.83200
O2034       O  0.62110398  0.69474716  0.22083702    -0.68900
O2035       O  0.51611680  0.64833525  0.06008417    -0.88200
C2036       C  0.58826887  0.67513997  0.22428761     0.84000
C2037       C  0.65768454  0.66395251  0.17890474     1.05600
H2038       H  0.53371322  0.63954909  0.14071888     0.37400
O2039       O  0.55310487  0.64728852  0.12176465    -1.10900
O2040       O  0.59279405  0.70353024  0.06046037    -0.67500
Ni2041     Ni  0.57777551  0.69760545  0.11751077     1.26300
O2042       O  0.57066772  0.65150060  0.19811681    -0.67700
O2043       O  0.53664041  0.69694503  0.09962547    -0.80000
C2044       C  0.62543432  0.76563627  0.14716357     0.83400
O2045       O  0.60518790  0.74868937  0.11788398    -0.67200
Ni2046     Ni  0.53500237  0.62066256  0.07433907     1.27400
Ni2047     Ni  0.58838722  0.64343373  0.14740570     1.26100
H2048       H  0.62973023  0.69523494  0.10955709     0.38000
C2049       C  0.93384296  0.67554287  0.06530118     0.79100
N2050       N  0.96610036  0.68481963  0.07837986    -0.79200
C2051       C  0.98598302  0.67596304  0.05622190     0.81600
N2052       N  0.97294726  0.65658280  0.02196798    -0.79100
C2053       C  0.94085622  0.64497025  0.50906896     0.81700
N2054       N  0.92075963  0.65450149  0.03088327    -0.80800
C2055       C  0.98530164  0.53385198  0.37431294     0.02000
C2056       C  0.96555084  0.99765417  0.36422109    -0.14100
C2057       C  0.98158354  0.97832816  0.35848207    -0.00500
C2058       C  0.51750719  0.99564596  0.36163002    -0.12600
C2059       C  0.53752423  0.53135364  0.37247165     0.02000
C2060       C  0.52136511  0.55050641  0.37934004    -0.12100
H2061       H  0.93754600  0.98405929  0.36343223     0.07600
H2062       H  0.52985262  0.98059258  0.35800843     0.05100
H2063       H  0.53678417  0.57830095  0.38714251     0.05000
O2064       O  0.58905797  0.54730308  0.33761953    -0.82000
O2065       O  0.74722309  0.61938200  0.37348021    -0.66700
O2066       O  0.64934054  0.56019788  0.37398587    -1.13300
C2067       C  0.65717803  0.66090155  0.43563361     1.04900
O2068       O  0.74722553  0.63771845  0.43654111    -0.79900
O2069       O  0.69007855  0.62267187  0.47988015    -0.67500
Ni2070     Ni  0.62914136  0.54532983  0.32235057     1.34900
C2071       C  0.66950181  0.58898264  0.48112978     0.83600
O2072       O  0.70210657  0.54964950  0.35524216    -0.80400
O2073       O  0.66732833  0.54125773  0.30417461    -0.90700
C2074       C  0.76312346  0.63733275  0.40450913     0.83200
O2075       O  0.65167249  0.59217761  0.29976914    -0.68900
O2076       O  0.68977410  0.67556239  0.43422844    -0.88200
C2077       C  0.68388376  0.60936836  0.29109792     0.84000
C2078       C  0.68373378  0.53107462  0.32557362     1.05600
H2079       H  0.69349875  0.64019699  0.36868941     0.37400
O2080       O  0.69065814  0.62479324  0.39145534    -1.10900
O2081       O  0.64774351  0.57294291  0.45268903    -0.67500
Ni2082     Ni  0.64205733  0.59322658  0.40152395     1.26300
O2083       O  0.70499269  0.60750731  0.31479562    -0.67700
O2084       O  0.63592226  0.62782275  0.42976150    -0.80000
C2085       C  0.57539337  0.54801981  0.37195560     0.83400
O2086       O  0.59286601  0.56087841  0.40454031    -0.67200
Ni2087     Ni  0.71693578  0.65481808  0.43498318     1.27400
Ni2088     Ni  0.69863767  0.58921444  0.37210006     1.26100
H2089       H  0.64191658  0.53942615  0.39105203     0.38000
C2090       C  0.61365966  0.69494697  0.99720600     0.79100
N2091       N  0.62350712  0.67353288  0.48167935    -0.79200
C2092       C  0.64400985  0.68304529  0.44798359     0.81600
N2093       N  0.65485864  0.71458023  0.42906974    -0.79100
C2094       C  0.64404295  0.73612099  0.44296967     0.81700
N2095       N  0.62324699  0.72629931  0.47758819    -0.80800
C2096       C  0.57197396  0.68364524  0.25824047     0.79100
N2097       N  0.53760705  0.66450424  0.26931730    -0.79200
C2098       C  0.52547318  0.67753391  0.29890791     0.81600
N2099       N  0.54751726  0.70915479  0.31694270    -0.79100
C2100       C  0.58144861  0.72762833  0.30576056     0.81700
N2101       N  0.59300921  0.71459333  0.27681615    -0.80800
O2102       O  0.96652632  0.56422604  0.41751927    -0.82000
O2103       O  0.86259275  0.61165498  0.40734151    -0.66700
O2104       O  0.90629980  0.56102301  0.39853517    -1.13300
C2105       C  0.98960201  0.65686505  0.31478775     1.04900
O2106       O  0.87839876  0.63473450  0.34431743    -0.80300
O2107       O  0.91393197  0.62229011  0.29070127    -0.67500
Ni2108     Ni  0.92415547  0.55452526  0.44670478     1.34900
C2109       C  0.89717454  0.58868998  0.29195180     0.83600
O2110       O  0.84608597  0.54581127  0.43191426    -0.80400
O2111       O  0.88109542  0.54090400  0.47558019    -0.90700
C2112       C  0.86410109  0.63173547  0.37900420     0.83200
O2113       O  0.94515749  0.60305624  0.46624565    -0.68900
O2114       O  0.97487071  0.67336806  0.32519233    -0.88200
C2115       C  0.92810578  0.61760539  0.47579433     0.84000
C2116       C  0.85118247  0.52900935  0.46016284     1.05600
H2117       H  0.94223955  0.63885019  0.39704759     0.37400
O2118       O  0.92604683  0.62342804  0.37679294    -1.10900
O2119       O  0.90431477  0.57170627  0.31782311    -0.67500
Ni2120     Ni  0.94011262  0.59206099  0.35981050     1.26300
O2121       O  0.90037098  0.60846806  0.45771100    -0.67700
O2122       O  0.97519662  0.62354247  0.31983079    -0.80000
C2123       C  0.96751568  0.55319895  0.38123569     0.83400
O2124       O  0.95331896  0.55868046  0.35098919    -0.67200
Ni2125     Ni  0.92637933  0.65362132  0.33572507     1.27400
Ni2126     Ni  0.88428621  0.58617283  0.40461192     1.26100
H2127       H  0.89087723  0.53826801  0.38629598     0.38000
C2128       C  0.51577395  0.83970104  0.45314994     0.79100
N2129       N  0.52844409  0.86140520  0.48575282    -0.79200
C2130       C  0.56071593  0.87421071  0.99803484     0.81600
N2131       N  0.57996475  0.86291876  0.48000402    -0.79100
C2132       C  0.56736404  0.83946081  0.44882249     0.81700
N2133       N  0.53562435  0.82921712  0.43356096    -0.80800
O2134       O  0.73237932  0.82955736  0.35009004    -0.82000
O2135       O  0.59548688  0.81127614  0.41836161    -0.66700
O2136       O  0.67129583  0.82944282  0.34707679    -1.13300
C2137       C  0.73652238  0.92149630  0.44089268     1.04900
O2138       O  0.61860731  0.86887271  0.41110856    -0.79900
O2139       O  0.68091994  0.92546337  0.39262545    -0.67500
Ni2140     Ni  0.68468860  0.79704074  0.33695265     1.34900
C2141       C  0.68234518  0.92053870  0.35452966     0.83600
O2142       O  0.60082462  0.77811363  0.34922796    -0.80400
O2143       O  0.63813857  0.76354473  0.32300001    -0.90700
C2144       C  0.59389898  0.83881280  0.42367513     0.83200
O2145       O  0.67675540  0.77635481  0.39023908    -0.68900
O2146       O  0.70805732  0.91261871  0.45978089    -0.88200
C2147       C  0.65258410  0.76726814  0.41663124     0.84000
C2148       C  0.60788629  0.75850688  0.32763352     1.05600
H2149       H  0.67450509  0.84534191  0.43690136     0.37400
O2150       O  0.66889869  0.85540513  0.41425480    -1.10900
O2151       O  0.68909407  0.89764337  0.34165683    -0.67500
Ni2152     Ni  0.70461091  0.87107245  0.37393627     1.26300
O2153       O  0.63440184  0.78140905  0.41792143    -0.67700
O2154       O  0.73799834  0.91247198  0.40395350    -0.80000
C2155       C  0.75045719  0.85982803  0.33281051     0.83400
O2156       O  0.73990015  0.88124091  0.33328157    -0.67200
Ni2157     Ni  0.66279780  0.89067485  0.43619631     1.27400
Ni2158     Ni  0.63302845  0.81689996  0.38322166     1.26100
H2159       H  0.66657942  0.83588041  0.32069743     0.38000
O2160       O  0.95731364  0.92802048  0.40040679    -0.82000
O2161       O  0.89985531  0.76798646  0.39843295    -0.66700
O2162       O  0.95474552  0.86692230  0.37537515    -1.13300
C2163       C  0.85166562  0.84819867  0.31875936     1.04900
O2164       O  0.87366260  0.75626613  0.33914146    -0.79900
O2165       O  0.88520327  0.80382007  0.28231854    -0.67500
Ni2166     Ni  0.97185445  0.89747427  0.42045169     1.34900
C2167       C  0.91707884  0.82754538  0.27613230     0.83600
O2168       O  0.96821679  0.81831315  0.40710824    -0.80400
O2169       O  0.98769546  0.86885096  0.44250865    -0.90700
C2170       C  0.87698170  0.74647154  0.37427451     0.83200
O2171       O  0.93091389  0.87466660  0.45419972    -0.68900
O2172       O  0.83741382  0.81511333  0.32475719    -0.88200
C2173       C  0.91446130  0.84235773  0.46466900     0.84000
C2174       C  0.98856204  0.84144977  0.43269926     1.05600
H2175       H  0.87777440  0.82190443  0.39148147     0.37400
O2176       O  0.89078074  0.82129871  0.36807196    -1.10900
O2177       O  0.93351993  0.85465100  0.29892934    -0.67500
Ni2178     Ni  0.91976567  0.86893682  0.34819276     1.26300
O2179       O  0.91566383  0.81930966  0.44357263    -0.67700
O2180       O  0.88398180  0.87052275  0.32121024    -0.80000
C2181       C  0.96178650  0.93961859  0.36373912     0.83400
O2182       O  0.95099270  0.91822331  0.33379447    -0.67200
Ni2183     Ni  0.85727043  0.78703894  0.33212828     1.27400
Ni2184     Ni  0.92838422  0.81753405  0.38754143     1.26100
H2185       H  0.97378751  0.87247380  0.35674524     0.38000
C2186       C  0.83076062  0.86179179  0.30549458     0.79100
N2187       N  0.84251038  0.88392268  0.27270719    -0.79200
C2188       C  0.82445728  0.89767559  0.25889282     0.81600
N2189       N  0.79497112  0.89060397  0.27888216    -0.79100
C2190       C  0.78335938  0.86908603  0.31264303     0.81700
N2191       N  0.80088001  0.85379141  0.32546294    -0.80800
C2192       C  0.76917625  0.94123612  0.46296275     0.79100
N2193       N  0.77807102  0.92318172  0.98852119    -0.79200
C2194       C  0.80959352  0.93996677  0.00632648     0.81600
N2195       N  0.83186721  0.97501242  0.99897657    -0.79100
C2196       C  0.82346631  0.49334354  0.47332687     0.81700
N2197       N  0.79228973  0.97622536  0.45455407    -0.80800
C2198       C  0.63973715  0.94643486  0.27640793     0.79100
N2199       N  0.65044842  0.92672223  0.29627890    -0.79200
C2200       C  0.67515477  0.94240211  0.32622720     0.81600
N2201       N  0.68767440  0.97712538  0.33636027    -0.79100
C2202       C  0.67776362  0.99638093  0.31460553     0.81700
N2203       N  0.65426368  0.98050146  0.28544917    -0.80800
C2204       C  0.80042150  0.65623019  0.40320923     0.02000
C2205       C  0.82058660  0.69313444  0.39645536    -0.14100
C2206       C  0.85587267  0.70930552  0.38552231    -0.00500
C2207       C  0.87023409  0.68891453  0.38062543    -0.12600
C2208       C  0.84955556  0.65249349  0.38675585     0.02000
C2209       C  0.81520381  0.63611318  0.39924481    -0.12100
H2210       H  0.80866004  0.70868498  0.39753533     0.07600
H2211       H  0.89719088  0.70119368  0.37084718     0.05100
H2212       H  0.79939623  0.60745841  0.40286538     0.05000
C2213       C  0.51708004  0.97889141  0.62422759     0.02000
C2214       C  0.53826580  0.51585531  0.62683007    -0.14100
C2215       C  0.52411159  0.53670215  0.62171062    -0.00500
C2216       C  0.98886733  0.52054536  0.61295200    -0.12600
C2217       C  0.96749134  0.98352978  0.61112142     0.02000
C2218       C  0.98171293  0.96267506  0.61689878    -0.12100
H2219       H  0.56565396  0.52831395  0.63282100     0.07600
H2220       H  0.97767477  0.53668577  0.60995652     0.05100
H2221       H  0.96506832  0.93399192  0.61778193     0.05000
C2222       C  0.70414849  0.85923275  0.64304097     0.02000
C2223       C  0.68347479  0.82190729  0.64203691    -0.14100
C2224       C  0.64716038  0.80437360  0.64627777    -0.00500
C2225       C  0.63189828  0.82413928  0.65076703    -0.12600
C2226       C  0.65272640  0.86113597  0.65117087     0.02000
C2227       C  0.68868272  0.87857257  0.64858033    -0.12100
H2228       H  0.69550381  0.80668618  0.63740738     0.07600
H2229       H  0.60388244  0.81079003  0.65261914     0.05100
H2230       H  0.70452209  0.90733498  0.64796002     0.05000
C2231       C  0.89334006  0.83050747  0.00235293     0.79100
N2232       N  0.88441211  0.79895642  0.51989889    -0.79200
C2233       C  0.86253831  0.78622819  0.55303051     0.81600
N2234       N  0.84880684  0.80475393  0.56796757    -0.79100
C2235       C  0.85831291  0.83672155  0.55109739     0.81700
N2236       N  0.88079355  0.84969926  0.51842757    -0.80800
O2237       O  0.52885853  0.94476871  0.66787938    -0.82000
O2238       O  0.60754246  0.87025783  0.66494044    -0.66700
O2239       O  0.58846655  0.94258246  0.65895161    -1.13300
C2240       C  0.57585464  0.90251794  0.52780128     1.04900
O2241       O  0.65238000  0.91053651  0.62693426    -0.79900
O2242       O  0.65460344  0.96662536  0.58651920    -0.67500
Ni2243     Ni  0.56426040  0.94804426  0.70272924     1.34900
C2244       C  0.64175168  0.98478565  0.57615418     0.83600
O2245       O  0.60480693  0.90789882  0.72354816    -0.80400
O2246       O  0.59942636  0.95310978  0.73941396    -0.90700
C2247       C  0.63693047  0.88163854  0.64807231     0.83200
O2248       O  0.53383298  0.89903682  0.71726586    -0.68900
O2249       O  0.60871115  0.91894760  0.53159323    -0.88200
C2250       C  0.52550437  0.87067334  0.69846466     0.84000
C2251       C  0.61241216  0.93411145  0.74551326     1.05600
H2252       H  0.57330695  0.87626712  0.60305908     0.37400
O2253       O  0.59015140  0.90072156  0.60934250    -1.10900
O2254       O  0.60923381  0.97115424  0.57821720    -0.67500
Ni2255     Ni  0.57082044  0.92823061  0.60435373     1.26300
O2256       O  0.54694652  0.86873180  0.67431054    -0.67700
O2257       O  0.55631834  0.90881395  0.55066395    -0.80000
C2258       C  0.53222761  0.95785647  0.63190079     0.83400
O2259       O  0.54924866  0.95466957  0.60277555    -0.67200
Ni2260     Ni  0.63118894  0.91581246  0.57908304     1.27400
Ni2261     Ni  0.59645083  0.90474926  0.66571912     1.26100
H2262       H  0.61080891  0.96446338  0.65669294     0.38000
C2263       C  0.67533552  0.57021143  0.51601800     0.79100
N2264       N  0.65407313  0.53562681  0.52933009    -0.79200
C2265       C  0.66466222  0.52231088  0.56061604     0.81600
N2266       N  0.69644467  0.54378132  0.57798952    -0.79100
C2267       C  0.71725134  0.57796209  0.56445793     0.81700
N2268       N  0.70607755  0.59001355  0.53408784    -0.80800
C2269       C  0.98902697  0.84056501  0.70646914     0.79100
N2270       N  0.97000179  0.84639762  0.73447171    -0.79200
C2271       C  0.93611669  0.82198720  0.74244994     0.81600
N2272       N  0.92103762  0.79061896  0.72255273    -0.79100
C2273       C  0.93913285  0.78376272  0.69433596     0.81700
N2274       N  0.97341203  0.80901589  0.68588530    -0.80800
O2275       O  0.86276636  0.62294826  0.66553176    -0.82000
O2276       O  0.87226323  0.74000645  0.57029951    -0.66700
O2277       O  0.85204726  0.67605802  0.65952458    -1.13300
C2278       C  0.74971491  0.60576992  0.58379742     1.04900
O2279       O  0.82336529  0.73472578  0.59093913    -0.79900
O2280       O  0.77024181  0.68099030  0.63532806    -0.67500
Ni2281     Ni  0.88782326  0.67163580  0.68055201     1.34900
C2282       C  0.76361100  0.66048405  0.66599551     0.83600
O2283       O  0.90793231  0.74616796  0.63851260    -0.80400
O2284       O  0.91309958  0.72110557  0.69574579    -0.90700
C2285       C  0.85230071  0.75190770  0.57163504     0.83200
O2286       O  0.91716706  0.68172197  0.63251209    -0.68900
O2287       O  0.75706914  0.63679787  0.57335945    -0.88200
C2288       C  0.91177939  0.68256030  0.59443048     0.84000
C2289       C  0.92019675  0.74847864  0.67433979     1.05600
H2290       H  0.82629936  0.66301760  0.56884991     0.37400
O2291       O  0.82193675  0.67138241  0.59422101    -1.10900
O2292       O  0.77919774  0.64377644  0.67122565    -0.67500
Ni2293     Ni  0.81062027  0.63634524  0.63582019     1.26300
O2294       O  0.88933066  0.68956099  0.58233412    -0.67700
O2295       O  0.76851636  0.59987750  0.60792459    -0.80000
C2296       C  0.83396126  0.60065295  0.68282294     0.83400
O2297       O  0.80703301  0.60223034  0.67667612    -0.67200
Ni2298     Ni  0.79065999  0.68513649  0.58243587     1.27400
Ni2299     Ni  0.86507646  0.70825260  0.61463042     1.26100
H2300       H  0.84447752  0.68492687  0.68171374     0.38000
O2301       O  0.74987461  0.87142068  0.59874792    -0.82000
O2302       O  0.90941656  0.95799366  0.58784383    -0.66700
O2303       O  0.81589165  0.89423235  0.62450640    -1.13300
C2304       C  0.83688521  0.99430100  0.69506497     1.04900
O2305       O  0.91927702  0.96155272  0.65447051    -0.79900
O2306       O  0.86717986  0.93391931  0.70986946    -0.67500
Ni2307     Ni  0.78290713  0.85853371  0.58934562     1.34900
C2308       C  0.83571187  0.91810198  0.72121757     0.83600
O2309       O  0.86487771  0.89037176  0.57137770    -0.80400
O2310       O  0.81255421  0.84103283  0.57817330    -0.90700
C2311       C  0.93029750  0.96726937  0.61742040     0.83200
O2312       O  0.79720275  0.88784307  0.54074401    -0.68900
O2313       O  0.86344445  0.49290299  0.70353331    -0.88200
C2314       C  0.81832498  0.92109459  0.53608887     0.84000
C2315       C  0.84440599  0.85718783  0.56793016     1.05600
H2316       H  0.86525382  0.97966690  0.61616824     0.37400
O2317       O  0.85989573  0.95968201  0.63365381    -1.10900
O2318       O  0.81307915  0.91900157  0.70075266    -0.67500
Ni2319     Ni  0.81179121  0.93262779  0.64581773     1.26300
O2320       O  0.84557120  0.93888655  0.55725930    -0.67700
O2321       O  0.81379098  0.97382933  0.66909821    -0.80000
C2322       C  0.74108969  0.87834159  0.63275025     0.83400
O2323       O  0.76273840  0.90311775  0.65565757    -0.67200
Ni2324     Ni  0.89026441  0.97641210  0.67794934     1.27400
Ni2325     Ni  0.86205582  0.92493756  0.60318579     1.26100
H2326       H  0.81753628  0.88144234  0.64750071     0.38000
C2327       C  0.86912016  0.57049367  0.76160948     0.79100
N2328       N  0.85836142  0.53753218  0.74861848    -0.79200
C2329       C  0.83655877  0.52319369  0.71625904     0.81600
N2330       N  0.82529544  0.54234356  0.69688102    -0.79100
C2331       C  0.83473740  0.57506121  0.71078756     0.81700
N2332       N  0.85740714  0.58911267  0.74218909    -0.80800
C2333       C  0.69542583  0.62934769  0.75125540     0.79100
N2334       N  0.72542783  0.63726739  0.73064075    -0.79200
C2335       C  0.73355308  0.65414309  0.69293456     0.81600
N2336       N  0.71121965  0.66242152  0.67646391    -0.79100
C2337       C  0.68078413  0.65315027  0.69583766     0.81700
N2338       N  0.67321267  0.63670243  0.73306497    -0.80800
O2339       O  0.62705397  0.74931331  0.67809379    -0.82000
O2340       O  0.55786752  0.59303458  0.65438729    -0.66700
O2341       O  0.61603639  0.69280632  0.63387039    -1.13300
C2342       C  0.51509432  0.67476083  0.57353574     1.04900
O2343       O  0.55252226  0.59131797  0.58706853    -0.79900
O2344       O  0.57444708  0.64880067  0.54024880    -0.67500
Ni2345     Ni  0.64805109  0.72228693  0.67381616     1.34900
C2346       C  0.59206014  0.68205489  0.53456783     0.83600
O2347       O  0.62507313  0.64099863  0.67524183    -0.80400
O2348       O  0.67103483  0.69672326  0.67096893    -0.90700
C2349       C  0.54613984  0.57539678  0.62148993     0.83200
O2350       O  0.62107046  0.69471872  0.72085509    -0.68900
O2351       O  0.51609452  0.64836797  0.56007279    -0.88200
C2352       C  0.58823572  0.67512259  0.72430895     0.84000
C2353       C  0.65764362  0.66392921  0.67890320     1.05600
H2354       H  0.53366973  0.63955747  0.64072666     0.37400
O2355       O  0.55306108  0.64729432  0.62177249    -1.10900
O2356       O  0.59276732  0.70354259  0.56047251    -0.67500
Ni2357     Ni  0.57774161  0.69761204  0.61752311     1.26300
O2358       O  0.57062618  0.65149429  0.69813071    -0.67700
O2359       O  0.53661601  0.69696902  0.59962582    -0.80000
C2360       C  0.62540089  0.76562656  0.64720510     0.83400
O2361       O  0.60516223  0.74869422  0.61791374    -0.67200
Ni2362     Ni  0.53495767  0.62067785  0.57433932     1.27400
Ni2363     Ni  0.58833979  0.64342682  0.64741410     1.26100
H2364       H  0.62968911  0.69522614  0.60957326     0.38000
C2365       C  0.93382634  0.67556991  0.56527608     0.79100
N2366       N  0.96608798  0.68485921  0.57834985    -0.79200
C2367       C  0.98597524  0.67600868  0.55619295     0.81600
N2368       N  0.97294036  0.65662389  0.52194060    -0.79100
C2369       C  0.94086918  0.64494595  0.00908871     0.81700
N2370       N  0.92074171  0.65451895  0.53086514    -0.80800
C2371       C  0.98532424  0.53385738  0.87429470     0.02000
C2372       C  0.96557708  0.99765233  0.86422865    -0.14100
C2373       C  0.98161580  0.97832992  0.85850079    -0.00500
C2374       C  0.51753995  0.99565576  0.86163458    -0.12600
C2375       C  0.53755418  0.53136723  0.87245488     0.02000
C2376       C  0.52139179  0.55052013  0.87930911    -0.12100
H2377       H  0.93757136  0.98405001  0.86345333     0.07600
H2378       H  0.52988910  0.98060508  0.85802122     0.05100
H2379       H  0.53680950  0.57831757  0.88709909     0.05000
O2380       O  0.58908472  0.54730203  0.83760684    -0.82000
O2381       O  0.74724162  0.61936945  0.87347911    -0.66700
O2382       O  0.64936260  0.56018481  0.87396753    -1.13300
C2383       C  0.65721934  0.66089903  0.93562788     1.04900
O2384       O  0.74718941  0.63762433  0.93656734    -0.79900
O2385       O  0.69006174  0.62265068  0.97988798    -0.67500
Ni2386     Ni  0.62916533  0.54532511  0.82233243     1.34900
C2387       C  0.66951113  0.58895965  0.98112619     0.83600
O2388       O  0.70213433  0.54964352  0.85521527    -0.80400
O2389       O  0.66735452  0.54125450  0.80415115    -0.90700
C2390       C  0.76311537  0.63728628  0.90453832     0.83200
O2391       O  0.65169076  0.59217585  0.79976858    -0.68900
O2392       O  0.68981586  0.67555603  0.93421735    -0.88200
C2393       C  0.68389895  0.60936867  0.79108860     0.84000
C2394       C  0.68376038  0.53106952  0.82554809     1.05600
H2395       H  0.69352378  0.64018659  0.86869261     0.37400
O2396       O  0.69067931  0.62477554  0.89145188    -1.10900
O2397       O  0.64776756  0.57291616  0.95267357    -0.67500
Ni2398     Ni  0.64208322  0.59321373  0.90151708     1.26300
O2399       O  0.70501356  0.60750638  0.81477753    -0.67700
O2400       O  0.63595972  0.62781715  0.92976500    -0.80000
C2401       C  0.57542223  0.54802711  0.87194119     0.83400
O2402       O  0.59289246  0.56087346  0.90452968    -0.67200
Ni2403     Ni  0.71694952  0.65478012  0.93499460     1.27400
Ni2404     Ni  0.69865950  0.58920203  0.87208196     1.26100
H2405       H  0.64193903  0.53941049  0.89102882     0.38000
C2406       C  0.61362664  0.69495797  0.49720865     0.79100
N2407       N  0.62354386  0.67352582  0.98167313    -0.79200
C2408       C  0.64405403  0.68304674  0.94798298     0.81600
N2409       N  0.65490474  0.71458723  0.92907841    -0.79100
C2410       C  0.64408150  0.73612186  0.94298390     0.81700
N2411       N  0.62328069  0.72629076  0.97759603    -0.80800
C2412       C  0.57195293  0.68363037  0.75827178     0.79100
N2413       N  0.53758399  0.66450782  0.76933488    -0.79200
C2414       C  0.52545776  0.67754282  0.79892645     0.81600
N2415       N  0.54751143  0.70915345  0.81697576    -0.79100
C2416       C  0.58144685  0.72760756  0.80580950     0.81700
N2417       N  0.59300036  0.71456608  0.77686502    -0.80800
O2418       O  0.96652688  0.56419963  0.91752570    -0.82000
O2419       O  0.86258999  0.61163831  0.90738471    -0.66700
O2420       O  0.90630548  0.56101778  0.89854366    -1.13300
C2421       C  0.98958772  0.65687600  0.81480374     1.04900
O2422       O  0.87838689  0.63473560  0.84436874    -0.80300
O2423       O  0.91390668  0.62229385  0.79073434    -0.67500
Ni2424     Ni  0.92416035  0.55451474  0.94671138     1.34900
C2425       C  0.89715509  0.58869362  0.79198154     0.83600
O2426       O  0.84608940  0.54579811  0.93192611    -0.80400
O2427       O  0.88110522  0.54090715  0.97559284    -0.90700
C2428       C  0.86409788  0.63172925  0.87906293     0.83200
O2429       O  0.94517280  0.60305003  0.96623728    -0.68900
O2430       O  0.97485473  0.67337620  0.82521219    -0.88200
C2431       C  0.92811842  0.61759244  0.97580374     0.84000
C2432       C  0.85119093  0.52900192  0.96017481     1.05600
H2433       H  0.94223524  0.63884729  0.89707077     0.37400
O2434       O  0.92604224  0.62342573  0.87681603    -1.10900
O2435       O  0.90430888  0.57171131  0.81783991    -0.67500
Ni2436     Ni  0.94011343  0.59206476  0.85982205     1.26300
O2437       O  0.90037703  0.60845151  0.95773408    -0.67700
O2438       O  0.97518627  0.62355371  0.81984138    -0.80000
C2439       C  0.96752772  0.55319621  0.88123134     0.83400
O2440       O  0.95333318  0.55869073  0.85099021    -0.67200
Ni2441     Ni  0.92636481  0.65362392  0.83576031     1.27400
Ni2442     Ni  0.88428699  0.58616311  0.90463268     1.26100
H2443       H  0.89088472  0.53826427  0.88630060     0.38000
C2444       C  0.51577188  0.83963739  0.95317647     0.79100
N2445       N  0.52843890  0.86134239  0.98578248    -0.79200
C2446       C  0.56070468  0.87423330  0.49803556     0.81600
N2447       N  0.57999130  0.86292519  0.97998112    -0.79100
C2448       C  0.56738942  0.83945596  0.94881226     0.81700
N2449       N  0.53563596  0.82917890  0.93357268    -0.80800
O2450       O  0.73239465  0.82954077  0.85008179    -0.82000
O2451       O  0.59550660  0.81127033  0.91836060    -0.66700
O2452       O  0.67131276  0.82942698  0.84708789    -1.13300
C2453       C  0.73653238  0.92148598  0.94090844     1.04900
O2454       O  0.61862750  0.86886507  0.91108948    -0.79900
O2455       O  0.68094389  0.92545875  0.89262231    -0.67500
Ni2456     Ni  0.68469773  0.79701353  0.83699075     1.34900
C2457       C  0.68235994  0.92052682  0.85452680     0.83600
O2458       O  0.60083966  0.77811653  0.84923289    -0.80400
O2459       O  0.63813493  0.76349314  0.82308867    -0.90700
C2460       C  0.59391894  0.83880733  0.92366134     0.83200
O2461       O  0.67681945  0.77639804  0.89030483    -0.68900
O2462       O  0.70806581  0.91260838  0.95979324    -0.88200
C2463       C  0.65261944  0.76727521  0.91666154     0.84000
C2464       C  0.60788965  0.75848068  0.82768399     1.05600
H2465       H  0.67451794  0.84533006  0.93691450     0.37400
O2466       O  0.66891356  0.85539312  0.91426589    -1.10900
O2467       O  0.68910251  0.89762531  0.84165978    -0.67500
Ni2468     Ni  0.70462394  0.87106051  0.87394805     1.26300
O2469       O  0.63440848  0.78138597  0.91792188    -0.67700
O2470       O  0.73800910  0.91246448  0.90396710    -0.80000
C2471       C  0.75046840  0.85981762  0.83281835     0.83400
O2472       O  0.73991032  0.88122911  0.83329632    -0.67200
Ni2473     Ni  0.66281148  0.89066738  0.93619331     1.27400
Ni2474     Ni  0.63304594  0.81689103  0.88322884     1.26100
H2475       H  0.66659897  0.83585951  0.82070369     0.38000
O2476       O  0.95739052  0.92803191  0.90044130    -0.82000
O2477       O  0.89984118  0.76796610  0.89847220    -0.66700
O2478       O  0.95476667  0.86689992  0.87539159    -1.13300
C2479       C  0.85169116  0.84822186  0.81880520     1.04900
O2480       O  0.87362128  0.75623608  0.83919737    -0.79900
O2481       O  0.88520635  0.80380106  0.78236785    -0.67500
Ni2482     Ni  0.97191877  0.89746596  0.92045559     1.34900
C2483       C  0.91707438  0.82754251  0.77616205     0.83600
O2484       O  0.96821182  0.81826343  0.90713348    -0.80400
O2485       O  0.98775183  0.86883342  0.94248659    -0.90700
C2486       C  0.87695234  0.74644935  0.87432914     0.83200
O2487       O  0.93100406  0.87467832  0.95425030    -0.68900
O2488       O  0.83743561  0.81513451  0.82478469    -0.88200
C2489       C  0.91452973  0.84236615  0.96471202     0.84000
C2490       C  0.98857615  0.84140399  0.93271002     1.05600
H2491       H  0.87779310  0.82190397  0.89152704     0.37400
O2492       O  0.89079259  0.82129490  0.86811173    -1.10900
O2493       O  0.93351544  0.85465186  0.79895314    -0.67500
Ni2494     Ni  0.91978603  0.86893518  0.84823697     1.26300
O2495       O  0.91568995  0.81930347  0.94359788    -0.67700
O2496       O  0.88400439  0.87054430  0.82128353    -0.80000
C2497       C  0.96183113  0.93962085  0.86377266     0.83400
O2498       O  0.95101886  0.91821953  0.83383495    -0.67200
Ni2499     Ni  0.85726707  0.78704001  0.83217319     1.27400
Ni2500     Ni  0.92838912  0.81751058  0.88756796     1.26100
H2501       H  0.97379561  0.87243638  0.85674657     0.38000
C2502       C  0.83079010  0.86181771  0.80553658     0.79100
N2503       N  0.84253870  0.88394928  0.77274856    -0.79200
C2504       C  0.82447453  0.89768890  0.75892787     0.81600
N2505       N  0.79498339  0.89060533  0.77890948    -0.79100
C2506       C  0.78337497  0.86908827  0.81266747     0.81700
N2507       N  0.80090185  0.85380340  0.82549407    -0.80800
C2508       C  0.76918734  0.94122669  0.96298098     0.79100
N2509       N  0.77805411  0.92319076  0.48850934    -0.79200
C2510       C  0.80957106  0.93997536  0.50632592     0.81600
N2511       N  0.83184679  0.97502123  0.49897678    -0.79100
C2512       C  0.82348027  0.49333418  0.97333599     0.81700
N2513       N  0.79230009  0.97621585  0.95457104    -0.80800
C2514       C  0.63974857  0.94642336  0.77640111     0.79100
N2515       N  0.65045699  0.92670830  0.79627474    -0.79200
C2516       C  0.67516816  0.94238932  0.82621933     0.81600
N2517       N  0.68769456  0.97711603  0.83634430    -0.79100
C2518       C  0.67778641  0.99637277  0.81458593     0.81700
N2519       N  0.65428272  0.98049197  0.78543503    -0.80800
C2520       C  0.80041002  0.65620030  0.90327367     0.02000
C2521       C  0.82056098  0.69310270  0.89650360    -0.14100
C2522       C  0.85585060  0.70928486  0.88558489    -0.00500
C2523       C  0.87022388  0.68890370  0.88070356    -0.12600
C2524       C  0.84955390  0.65248312  0.88683878     0.02000
C2525       C  0.81520445  0.63609484  0.89933341    -0.12100
H2526       H  0.80862185  0.70864181  0.89756083     0.07600
H2527       H  0.89718101  0.70118852  0.87092431     0.05100
H2528       H  0.79940411  0.60743976  0.90295813     0.05000
loop_ 
_geom_bond_atom_site_label_1 
_geom_bond_atom_site_label_2 
_geom_bond_distance 
_geom_bond_site_symmetry_2 
_ccdc_geom_bond_type 
C1           C46   1.451       .  S
C1          C634   1.401       .  A
C1         C1270   1.397   1_455  A
C2            C3   1.394       .  A
C2          C633   1.401   1_545  A
C2            H7   1.085       .  S
C3          C137   1.462       .  S
C3         C1268   1.403   1_455  A
C4         C1267   1.403       .  A
C4          C637   1.402   1_545  A
C4            H8   1.085       .  S
C5           C99   1.456       .  S
C5            C6   1.400       .  A
C5          C636   1.402       .  A
C6         C1265   1.397       .  A
C6            H9   1.085       .  S
C10         C110   1.457       .  S
C10          C11   1.410       .  A
C10          C15   1.383       .  A
C11          C12   1.408       .  A
C11          H16   1.084       .  S
C12         C148   1.463       .  S
C12          C13   1.388       .  A
C13          C14   1.398       .  A
C13          H17   1.085       .  S
C14          C35   1.436       .  S
C14          C15   1.391       .  A
C15          H18   1.085       .  S
C19         C277   1.456       .  S
C19         N336   1.358       .  A
C19         N340   1.356       .  A
N20          C21   1.353       .  A
N20         C335   1.358       .  A
C21          C73   1.464       .  S
C21          N22   1.360       .  A
N22          C23   1.358       .  A
C23         C103   1.462       .  S
C23          N24   1.356       .  A
N24         C335   1.356       .  A
O25         Ni31   1.930       .  S
O25          C46   1.275       .  A
O26         Ni49   1.855       .  S
O26          C35   1.265       .  A
O27         Ni31   1.880       .  S
O27         Ni49   1.915       .  S
O27         Ni43   1.929       .  S
O27          H50   0.966       .  S
C28         C234   1.452   1_554  S
C28          O45   1.291       .  A
C28          O37   1.278       .  A
O29         Ni48   1.923       .  S
O29          C35   1.279       .  A
O30         Ni48   1.940       .  S
O30          C32   1.272       .  A
Ni31         O34   1.930       .  S
Ni31         O36   1.913       .  S
C32         C685   1.502       .  S
C32          O42   1.268       .  A
O33         Ni49   1.916       .  S
O33          C39   1.256       .  A
O34          C39   1.280       .  A
O36          C38   1.272       .  A
O37         Ni48   1.913       .  S
C38        C1321   1.497   1_455  S
C38          O44   1.281       .  A
C39         C302   1.478       .  S
H40          O41   0.967       .  S
O41         Ni49   1.855       .  S
O41         Ni43   1.858       .  S
O41         Ni48   1.873       .  S
O42         Ni43   1.953       .  S
Ni43         O47   1.893       .  S
Ni43         O45   1.918       .  S
O44         Ni49   1.966       .  S
C46          O47   1.269       .  A
C51         C491   1.515   1_554  S
C51          N52   1.375       .  A
C51          N56   1.344       .  A
N52          C53   1.391       .  A
C53         C664   1.502   1_545  S
C53          N54   1.376       .  A
N54          C55   1.362       .  A
C55          C66   1.486       .  S
C55          N56   1.351       .  A
C57        C1302   1.497       .  S
C57          N58   1.364       .  A
C57          N62   1.375       .  A
N58          C59   1.353       .  A
C59         C271   1.487       .  S
C59          N60   1.358       .  A
N60          C61   1.363       .  A
C61          C77   1.491       .  S
C61          N62   1.376       .  A
O63         Ni69   1.908       .  S
O63          C84   1.268       .  A
O64         Ni87   1.912       .  S
O64          C73   1.273       .  A
O65         Ni69   1.882       .  S
O65         Ni87   1.893       .  S
O65         Ni81   1.949       .  S
O65          H88   0.966       .  S
C66          O83   1.296       .  A
C66          O75   1.279       .  A
O67         Ni86   1.922       .  S
O67          C73   1.269       .  A
O68         Ni86   1.901       .  S
O68          C70   1.268       .  A
Ni69         O72   1.938       .  S
Ni69         O74   1.926       .  S
C70         C123   1.505       .  S
C70          O80   1.285       .  A
O71         Ni87   1.956       .  S
O71          C77   1.282       .  A
O72          C77   1.281       .  A
O74          C76   1.271       .  A
O75         Ni86   1.893       .  S
C76         C153   1.518       .  S
C76          O82   1.285       .  A
H78          O79   0.967       .  S
O79         Ni87   1.904       .  S
O79         Ni81   1.906       .  S
O79         Ni86   1.870       .  S
O80         Ni81   1.983       .  S
Ni81         O85   1.952       .  S
Ni81         O83   1.975       .  S
O82         Ni87   1.990       .  S
C84         C119   1.470       .  S
C84          O85   1.285       .  A
O89         Ni95   1.895       .  S
O89         C110   1.263       .  A
O90        Ni113   1.911       .  S
O90          C99   1.272       .  A
O91         Ni95   1.905       .  S
O91        Ni113   1.912       .  S
O91        Ni107   1.945       .  S
O91         H114   0.966       .  S
C92         C749   1.469       .  S
C92         O109   1.292       .  A
C92         O733   1.279       .  A
O93        Ni112   1.914       .  S
O93          C99   1.268       .  A
O94        Ni112   1.895       .  S
O94          C96   1.262       .  A
Ni95         O98   1.915       .  S
Ni95        O100   1.915       .  S
C96         C292   1.437       .  S
C96         O106   1.255       .  A
O97        Ni113   1.917       .  S
O97         C103   1.267       .  A
O98         C103   1.267       .  A
O100        C102   1.272       .  A
O101       Ni744   1.909       .  S
O101        C724   1.279       .  A
C102        C298   1.472       .  S
C102        O108   1.278       .  A
H104        O105   0.967       .  S
O105       Ni113   1.885       .  S
O105       Ni107   1.889       .  S
O105       Ni112   1.878       .  S
O106       Ni107   1.896       .  S
Ni107       O111   1.916       .  S
Ni107       O109   1.945       .  S
O108       Ni113   1.926       .  S
C110        O111   1.273       .  A
Ni112       O733   1.909       .  S
C115        C213   1.488       .  S
C115        N116   1.349       .  A
C115        N120   1.360       .  A
N116        C117   1.368       .  A
C117        C724   1.469   1_545  S
C117        N118   1.364       .  A
N118        C119   1.363       .  A
C119        N120   1.363       .  A
C121        C181   1.488       .  S
C121        N122   1.377       .  A
C121        N126   1.361       .  A
N122        C123   1.373       .  A
C123        N124   1.369       .  A
N124        C125   1.359       .  A
C125        C141   1.483       .  S
C125        N126   1.353       .  A
O127       Ni133   1.898       .  S
O127        C148   1.264       .  A
O128       Ni151   1.920       .  S
O128        C137   1.276       .  A
O129       Ni133   1.893       .  S
O129       Ni151   1.909       .  S
O129       Ni145   1.950       .  S
O129        H152   0.966       .  S
C130       C1419   1.478   1_455  S
C130        O147   1.290       .  A
C130        O139   1.279       .  A
O131       Ni150   1.908       .  S
O131        C137   1.266       .  A
O132       Ni150   1.886       .  S
O132        C134   1.265       .  A
Ni133       O136   1.914       .  S
Ni133       O138   1.916       .  S
C134        C194   1.457   1_554  S
C134        O144   1.265       .  A
O135       Ni151   1.969       .  S
O135        C141   1.287       .  A
O136        C141   1.271       .  A
O138        C140   1.272       .  A
O139       Ni150   1.900       .  S
C140        C200   1.479       .  S
C140        O146   1.269       .  A
H142        O143   0.967       .  S
O143       Ni151   1.910       .  S
O143       Ni145   1.902       .  S
O143       Ni150   1.867       .  S
O144       Ni145   1.933       .  S
Ni145       O149   1.927       .  S
Ni145       O147   1.957       .  S
O146       Ni151   1.940       .  S
C148        O149   1.274       .  A
C153        N154   1.375       .  A
C153        N158   1.387       .  A
N154        C155   1.362       .  A
C155       C1394   1.478       .  S
C155        N156   1.351       .  A
N156        C473   1.341       .  A
C157        C219   1.508       .  S
C157        N472   1.341       .  A
C157        N474   1.384       .  A
N158        C473   1.384       .  A
C159        C227   1.479       .  S
C159        C792   1.410   1_545  A
C159       C1428   1.411       .  A
C160        C161   1.405       .  A
C160        C791   1.410       .  A
C160        H165   1.084       .  S
C161        C285   1.467       .  S
C161       C1426   1.396       .  A
C162       C1425   1.396   1_455  A
C162        C795   1.399       .  A
C162        H166   1.086       .  S
C163        C189   1.472       .  S
C163        C164   1.408       .  A
C163        C794   1.399   1_545  A
C164       C1423   1.411   1_455  A
C164        H167   1.084       .  S
O168       Ni174   1.931       .  S
O168        C189   1.277       .  A
O169       Ni192   1.884       .  S
O169        C178   1.264       .  A
O170       Ni174   1.876       .  S
O170       Ni192   1.904       .  S
O170       Ni186   1.896       .  S
O170        H193   0.967       .  S
C171        C196   1.455       .  S
C171        O188   1.279       .  A
C171        O180   1.265       .  A
O172       Ni191   1.899       .  S
O172        C178   1.263       .  A
O173       Ni191   1.932       .  S
O173        C175   1.278       .  A
Ni174       O177   1.926       .  S
Ni174       O179   1.905       .  S
C175        C367   1.515       .  S
C175        O185   1.278       .  A
O176       Ni192   1.931       .  S
O176        C182   1.271       .  A
O177        C182   1.275       .  A
C178        C308   1.440       .  S
O179        C181   1.268       .  A
O180       Ni191   1.898       .  S
C181        O187   1.279       .  A
C182        C938   1.466   1_545  S
H183        O184   0.966       .  S
O184       Ni192   1.910       .  S
O184       Ni186   1.910       .  S
O184       Ni191   1.897       .  S
O185       Ni186   1.975       .  S
Ni186       O190   1.915       .  S
Ni186       O188   1.938       .  S
O187       Ni192   1.984       .  S
C189        O190   1.279       .  A
C194        N511   1.349       .  A
C194        N515   1.371       .  A
N195        C196   1.338       .  A
N195        C510   1.349       .  A
C196        N197   1.356       .  A
N197        C198   1.366       .  A
C198        C251   1.487       .  S
C198        N199   1.369       .  A
N199        C510   1.371       .  A
C200        N201   1.366       .  A
C200        N205   1.344       .  A
N201        C202   1.376       .  A
C202       C1473   1.467   1_455  S
C202        N203   1.364       .  A
N203        C204   1.351       .  A
C204        C252   1.458       .  S
C204        N205   1.346       .  A
O206       Ni212   1.964       .  S
O206        C227   1.289       .  A
O207       Ni230   1.860       .  S
O207        C216   1.256       .  A
O208       Ni212   1.868       .  S
O208       Ni230   1.867       .  S
O208       Ni224   1.877       .  S
O208        H231   0.967       .  S
C209       C1466   1.467       .  S
C209        O226   1.272       .  A
C209        O218   1.274       .  A
O210       Ni229   1.894       .  S
O210        C216   1.263       .  A
O211       Ni229   1.902       .  S
O211        C213   1.268       .  A
Ni212       O215   1.940       .  S
Ni212       O217   1.955       .  S
C213        O223   1.285       .  A
O214       Ni230   1.911       .  S
O214        C220   1.282       .  A
O215        C220   1.284       .  A
C216        C312   1.416       .  S
O217        C219   1.284       .  A
O218       Ni229   1.917       .  S
C219        O225   1.261       .  A
C220        C300   1.464   1_545  S
H221        O222   0.965       .  S
O222       Ni230   1.939       .  S
O222       Ni224   1.900       .  S
O222       Ni229   1.885       .  S
O223       Ni224   1.966       .  S
Ni224       O228   1.898       .  S
Ni224       O226   1.933       .  S
O225       Ni230   1.947       .  S
C227        O228   1.278       .  A
C232       C1542   1.455   1_455  S
C232        N233   1.352       .  A
C232        N237   1.368       .  A
N233        C550   1.333       .  A
C234        N549   1.333       .  A
C234        N551   1.350       .  A
N235        C236   1.357       .  A
N235        C550   1.350       .  A
C236        C248   1.460       .  S
C236        N237   1.368       .  A
O238       Ni244   1.922       .  S
O238        C259   1.268       .  A
O239       Ni262   1.941       .  S
O239        C248   1.278       .  A
O240       Ni244   1.869       .  S
O240       Ni262   1.902       .  S
O240       Ni256   1.890       .  S
O240        H263   0.966       .  S
C241        C296   1.468       .  S
C241        O258   1.280       .  A
C241        O250   1.281       .  A
O242       Ni261   1.910       .  S
O242        C248   1.266       .  A
O243       Ni261   1.915       .  S
O243        C245   1.265       .  A
Ni244       O247   1.899       .  S
Ni244       O249   1.895       .  S
C245        C304   1.498       .  S
C245        O255   1.281       .  A
O246       Ni262   1.933       .  S
O246        C252   1.286       .  A
O247        C252   1.279       .  A
O249        C251   1.266       .  A
O250       Ni261   1.928       .  S
C251        O257   1.280       .  A
H253        O254   0.966       .  S
O254       Ni262   1.930       .  S
O254       Ni256   1.887       .  S
O254       Ni261   1.876       .  S
O255       Ni256   1.976       .  S
Ni256       O260   1.919       .  S
Ni256       O258   1.937       .  S
O257       Ni262   1.966       .  S
C259        C294   1.467       .  S
C259        O260   1.276       .  A
O264       Ni270   1.918       .  S
O264        C285   1.266       .  A
O265       Ni288   1.900       .  S
O265        C274   1.263       .  A
O266       Ni270   1.881       .  S
O266       Ni288   1.898       .  S
O266       Ni282   1.879       .  S
O266        H289   0.966       .  S
C267        C290   1.444       .  S
C267        O284   1.269       .  A
C267        O276   1.267       .  A
O268       Ni287   1.892       .  S
O268        C274   1.261       .  A
O269       Ni287   1.925       .  S
O269        C271   1.274       .  A
Ni270       O273   1.910       .  S
Ni270       O275   1.902       .  S
C271        O281   1.278       .  A
O272       Ni288   1.917       .  S
O272        C278   1.278       .  A
O273        C278   1.283       .  A
C274        C310   1.445       .  S
O275        C277   1.260       .  A
O276       Ni287   1.909       .  S
C277        O283   1.261       .  A
C278       C1496   1.455       .  S
H279        O280   0.966       .  S
O280       Ni288   1.925       .  S
O280       Ni282   1.908       .  S
O280       Ni287   1.904       .  S
O281       Ni282   1.939       .  S
Ni282       O286   1.926       .  S
Ni282       O284   1.899       .  S
O283       Ni288   1.917       .  S
C285        O286   1.274       .  A
C290        N291   1.343       .  A
C290        N295   1.361       .  A
N291        C292   1.341       .  A
C292        N293   1.358       .  A
N293        C294   1.354       .  A
C294        N295   1.364       .  A
C296        N301   1.361       .  A
C296        N613   1.360       .  A
N297        C298   1.360   1_556  A
N297        C612   1.361       .  A
C298        N299   1.352   1_554  A
N299       C1248   1.358       .  A
C300       N1247   1.358       .  A
C300        N933   1.362       .  A
N301        C932   1.362       .  A
C302        N303   1.374       .  A
C302        N307   1.330       .  A
N303        C304   1.383       .  A
C304        N305   1.378       .  A
N305        C306   1.363       .  A
C306        C814   1.466       .  S
C306        N307   1.335       .  A
C308        C309   1.406       .  A
C308        C313   1.383       .  A
C309        C310   1.406       .  A
C309        H314   1.084       .  S
C310        C311   1.381       .  A
C311        C312   1.387       .  A
C311        H315   1.086       .  S
C312        C313   1.381       .  A
C313        H316   1.086       .  S
C317        C362   1.451       .  S
C317        C950   1.401       .  A
C317       C1586   1.397   1_455  A
C318        C949   1.401   1_545  A
C318        C319   1.394       .  A
C318        H323   1.085       .  S
C319        C453   1.462       .  S
C319       C1584   1.403   1_455  A
C320       C1583   1.403       .  A
C320        C953   1.402   1_545  A
C320        H324   1.085       .  S
C321        C415   1.456       .  S
C321        C952   1.402       .  A
C321        C322   1.400       .  A
C322       C1581   1.397       .  A
C322        H325   1.085       .  S
C326        C426   1.457       .  S
C326        C327   1.410       .  A
C326        C331   1.383       .  A
C327        C328   1.408       .  A
C327        H332   1.084       .  S
C328        C464   1.463       .  S
C328        C329   1.388       .  A
C329        C330   1.398       .  A
C329        H333   1.085       .  S
C330        C351   1.436       .  S
C330        C331   1.391       .  A
C331        H334   1.085       .  S
C335        C593   1.456   1_554  S
N336        C337   1.353       .  A
C337        C389   1.464       .  S
C337        N338   1.360       .  A
N338        C339   1.358       .  A
C339        C419   1.462       .  S
C339        N340   1.356       .  A
O341       Ni347   1.930       .  S
O341        C362   1.275       .  A
O342       Ni365   1.854       .  S
O342        C351   1.265       .  A
O343       Ni347   1.880       .  S
O343       Ni365   1.915       .  S
O343       Ni359   1.929       .  S
O343        H366   0.966       .  S
C344        C550   1.452       .  S
C344        O361   1.291       .  A
C344        O353   1.278       .  A
O345       Ni364   1.923       .  S
O345        C351   1.279       .  A
O346       Ni364   1.940       .  S
O346        C348   1.272       .  A
Ni347       O350   1.931       .  S
Ni347       O352   1.913       .  S
C348       C1001   1.502       .  S
C348        O358   1.268       .  A
O349       Ni365   1.916       .  S
O349        C355   1.256       .  A
O350        C355   1.280       .  A
O352        C354   1.272       .  A
O353       Ni364   1.913       .  S
C354       C1637   1.497   1_455  S
C354        O360   1.281       .  A
C355        C618   1.478       .  S
H356        O357   0.967       .  S
O357       Ni365   1.855       .  S
O357       Ni359   1.858       .  S
O357       Ni364   1.873       .  S
O358       Ni359   1.953       .  S
Ni359       O363   1.893       .  S
Ni359       O361   1.918       .  S
O360       Ni365   1.966       .  S
C362        O363   1.269       .  A
C367        N368   1.375       .  A
C367        N372   1.344       .  A
N368        C369   1.391       .  A
C369        C980   1.502   1_545  S
C369        N370   1.375       .  A
N370        C371   1.362       .  A
C371        C382   1.486       .  S
C371        N372   1.351       .  A
C373       C1618   1.497       .  S
C373        N374   1.364       .  A
C373        N378   1.375       .  A
N374        C375   1.353       .  A
C375        C587   1.487       .  S
C375        N376   1.358       .  A
N376        C377   1.363       .  A
C377        C393   1.491       .  S
C377        N378   1.376       .  A
O379       Ni385   1.908       .  S
O379        C400   1.268       .  A
O380       Ni403   1.913       .  S
O380        C389   1.273       .  A
O381       Ni385   1.882       .  S
O381       Ni403   1.893       .  S
O381       Ni397   1.949       .  S
O381        H404   0.966       .  S
C382        O399   1.296       .  A
C382        O391   1.279       .  A
O383       Ni402   1.922       .  S
O383        C389   1.269       .  A
O384       Ni402   1.901       .  S
O384        C386   1.268       .  A
Ni385       O388   1.938       .  S
Ni385       O390   1.926       .  S
C386        C439   1.505       .  S
C386        O396   1.285       .  A
O387       Ni403   1.956       .  S
O387        C393   1.282       .  A
O388        C393   1.281       .  A
O390        C392   1.271       .  A
O391       Ni402   1.892       .  S
C392        C469   1.518       .  S
C392        O398   1.285       .  A
H394        O395   0.967       .  S
O395       Ni403   1.904       .  S
O395       Ni397   1.906       .  S
O395       Ni402   1.870       .  S
O396       Ni397   1.983       .  S
Ni397       O401   1.952       .  S
Ni397       O399   1.975       .  S
O398       Ni403   1.990       .  S
C400        C435   1.470       .  S
C400        O401   1.285       .  A
O405       Ni411   1.895       .  S
O405        C426   1.263       .  A
O406       Ni429   1.911       .  S
O406        C415   1.272       .  A
O407       Ni411   1.905       .  S
O407       Ni429   1.912       .  S
O407       Ni423   1.945       .  S
O407        H430   0.966       .  S
C408       C1065   1.469       .  S
C408        O425   1.292       .  A
C408       O1049   1.279       .  A
O409       Ni428   1.914       .  S
O409        C415   1.268       .  A
O410       Ni428   1.895       .  S
O410        C412   1.262       .  A
Ni411       O414   1.915       .  S
Ni411       O416   1.915       .  S
C412        C608   1.437       .  S
C412        O422   1.255       .  A
O413       Ni429   1.917       .  S
O413        C419   1.267       .  A
O414        C419   1.267       .  A
O416        C418   1.273       .  A
O417      Ni1060   1.910       .  S
O417       C1040   1.279       .  A
C418        C614   1.472       .  S
C418        O424   1.278       .  A
H420        O421   0.967       .  S
O421       Ni429   1.886       .  S
O421       Ni423   1.889       .  S
O421       Ni428   1.878       .  S
O422       Ni423   1.896       .  S
Ni423       O427   1.916       .  S
Ni423       O425   1.945       .  S
O424       Ni429   1.926       .  S
C426        O427   1.273       .  A
Ni428      O1049   1.910       .  S
C431        C529   1.488       .  S
C431        N432   1.349       .  A
C431        N436   1.360       .  A
N432        C433   1.368       .  A
C433       C1040   1.469   1_545  S
C433        N434   1.364       .  A
N434        C435   1.363       .  A
C435        N436   1.363       .  A
C437        C497   1.488       .  S
C437        N438   1.377       .  A
C437        N442   1.361       .  A
N438        C439   1.373       .  A
C439        N440   1.369       .  A
N440        C441   1.359       .  A
C441        C457   1.484       .  S
C441        N442   1.353       .  A
O443       Ni449   1.898       .  S
O443        C464   1.264       .  A
O444       Ni467   1.920       .  S
O444        C453   1.276       .  A
O445       Ni449   1.893       .  S
O445       Ni467   1.909       .  S
O445       Ni461   1.950       .  S
O445        H468   0.966       .  S
C446       C1735   1.478   1_455  S
C446        O463   1.290       .  A
C446        O455   1.279       .  A
O447       Ni466   1.908       .  S
O447        C453   1.266       .  A
O448       Ni466   1.886       .  S
O448        C450   1.265       .  A
Ni449       O452   1.914       .  S
Ni449       O454   1.916       .  S
C450        C510   1.457       .  S
C450        O460   1.265       .  A
O451       Ni467   1.969       .  S
O451        C457   1.287       .  A
O452        C457   1.271       .  A
O454        C456   1.272       .  A
O455       Ni466   1.900       .  S
C456        C516   1.479       .  S
C456        O462   1.269       .  A
H458        O459   0.967       .  S
O459       Ni467   1.910       .  S
O459       Ni461   1.902       .  S
O459       Ni466   1.867       .  S
O460       Ni461   1.933       .  S
Ni461       O465   1.927       .  S
Ni461       O463   1.958       .  S
O462       Ni467   1.940       .  S
C464        O465   1.274       .  A
C469        N470   1.375       .  A
C469        N474   1.387       .  A
N470        C471   1.362       .  A
C471       C1710   1.478       .  S
C471        N472   1.351       .  A
C473        C535   1.508   1_554  S
C475        C543   1.479       .  S
C475       C1108   1.410   1_545  A
C475       C1744   1.411       .  A
C476       C1107   1.410       .  A
C476        C477   1.405       .  A
C476        H481   1.084       .  S
C477        C601   1.467       .  S
C477       C1742   1.396       .  A
C478       C1741   1.396   1_455  A
C478       C1111   1.399       .  A
C478        H482   1.086       .  S
C479        C505   1.472       .  S
C479       C1110   1.399   1_545  A
C479        C480   1.408       .  A
C480       C1739   1.411   1_455  A
C480        H483   1.084       .  S
O484       Ni490   1.931       .  S
O484        C505   1.277       .  A
O485       Ni508   1.884       .  S
O485        C494   1.264       .  A
O486       Ni490   1.876       .  S
O486       Ni508   1.904       .  S
O486       Ni502   1.896       .  S
O486        H509   0.967       .  S
C487        C512   1.455       .  S
C487        O504   1.279       .  A
C487        O496   1.265       .  A
O488       Ni507   1.899       .  S
O488        C494   1.263       .  A
O489       Ni507   1.932       .  S
O489        C491   1.278       .  A
Ni490       O493   1.926       .  S
Ni490       O495   1.905       .  S
C491        O501   1.278       .  A
O492       Ni508   1.931       .  S
O492        C498   1.271       .  A
O493        C498   1.275       .  A
C494        C624   1.440       .  S
O495        C497   1.268       .  A
O496       Ni507   1.898       .  S
C497        O503   1.279       .  A
C498       C1254   1.466   1_545  S
H499        O500   0.966       .  S
O500       Ni508   1.910       .  S
O500       Ni502   1.910       .  S
O500       Ni507   1.897       .  S
O501       Ni502   1.975       .  S
Ni502       O506   1.915       .  S
Ni502       O504   1.938       .  S
O503       Ni508   1.984       .  S
C505        O506   1.279       .  A
N511        C512   1.338       .  A
C512        N513   1.356       .  A
N513        C514   1.366       .  A
C514        C567   1.487       .  S
C514        N515   1.369       .  A
C516        N517   1.366       .  A
C516        N521   1.344       .  A
N517        C518   1.376       .  A
C518       C1789   1.467   1_455  S
C518        N519   1.364       .  A
N519        C520   1.351       .  A
C520        C568   1.458       .  S
C520        N521   1.346       .  A
O522       Ni528   1.964       .  S
O522        C543   1.289       .  A
O523       Ni546   1.860       .  S
O523        C532   1.256       .  A
O524       Ni528   1.868       .  S
O524       Ni546   1.867       .  S
O524       Ni540   1.877       .  S
O524        H547   0.967       .  S
C525       C1782   1.467       .  S
C525        O542   1.272       .  A
C525        O534   1.274       .  A
O526       Ni545   1.894       .  S
O526        C532   1.263       .  A
O527       Ni545   1.902       .  S
O527        C529   1.268       .  A
Ni528       O531   1.940       .  S
Ni528       O533   1.955       .  S
C529        O539   1.285       .  A
O530       Ni546   1.911       .  S
O530        C536   1.282       .  A
O531        C536   1.284       .  A
C532        C628   1.415       .  S
O533        C535   1.284       .  A
O534       Ni545   1.917       .  S
C535        O541   1.261       .  A
C536        C616   1.464   1_545  S
H537        O538   0.965       .  S
O538       Ni546   1.939       .  S
O538       Ni540   1.900       .  S
O538       Ni545   1.885       .  S
O539       Ni540   1.966       .  S
Ni540       O544   1.898       .  S
Ni540       O542   1.933       .  S
O541       Ni546   1.947       .  S
C543        O544   1.278       .  A
C548       C1858   1.455   1_455  S
C548        N549   1.352       .  A
C548        N553   1.368       .  A
N551        C552   1.357       .  A
C552        C564   1.460       .  S
C552        N553   1.368       .  A
O554       Ni560   1.922       .  S
O554        C575   1.268       .  A
O555       Ni578   1.940       .  S
O555        C564   1.278       .  A
O556       Ni560   1.869       .  S
O556       Ni578   1.902       .  S
O556       Ni572   1.890       .  S
O556        H579   0.966       .  S
C557        C612   1.468       .  S
C557        O574   1.280       .  A
C557        O566   1.281       .  A
O558       Ni577   1.910       .  S
O558        C564   1.266       .  A
O559       Ni577   1.915       .  S
O559        C561   1.265       .  A
Ni560       O563   1.899       .  S
Ni560       O565   1.895       .  S
C561        C620   1.498       .  S
C561        O571   1.281       .  A
O562       Ni578   1.933       .  S
O562        C568   1.286       .  A
O563        C568   1.279       .  A
O565        C567   1.266       .  A
O566       Ni577   1.928       .  S
C567        O573   1.280       .  A
H569        O570   0.966       .  S
O570       Ni578   1.930       .  S
O570       Ni572   1.887       .  S
O570       Ni577   1.876       .  S
O571       Ni572   1.976       .  S
Ni572       O576   1.919       .  S
Ni572       O574   1.937       .  S
O573       Ni578   1.967       .  S
C575        C610   1.467       .  S
C575        O576   1.276       .  A
O580       Ni586   1.918       .  S
O580        C601   1.267       .  A
O581       Ni604   1.900       .  S
O581        C590   1.263       .  A
O582       Ni586   1.881       .  S
O582       Ni604   1.898       .  S
O582       Ni598   1.879       .  S
O582        H605   0.966       .  S
C583        C606   1.444       .  S
C583        O600   1.269       .  A
C583        O592   1.267       .  A
O584       Ni603   1.892       .  S
O584        C590   1.261       .  A
O585       Ni603   1.925       .  S
O585        C587   1.274       .  A
Ni586       O589   1.910       .  S
Ni586       O591   1.902       .  S
C587        O597   1.278       .  A
O588       Ni604   1.917       .  S
O588        C594   1.278       .  A
O589        C594   1.283       .  A
C590        C626   1.445       .  S
O591        C593   1.260       .  A
O592       Ni603   1.909       .  S
C593        O599   1.261       .  A
C594       C1812   1.455       .  S
H595        O596   0.966       .  S
O596       Ni604   1.925       .  S
O596       Ni598   1.908       .  S
O596       Ni603   1.905       .  S
O597       Ni598   1.939       .  S
Ni598       O602   1.926       .  S
Ni598       O600   1.899       .  S
O599       Ni604   1.916       .  S
C601        O602   1.274       .  A
C606        N607   1.343       .  A
C606        N611   1.361       .  A
N607        C608   1.341       .  A
C608        N609   1.358       .  A
N609        C610   1.354       .  A
C610        N611   1.364       .  A
C612        N617   1.361       .  A
N613        C614   1.360       .  A
C614        N615   1.352       .  A
N615        C932   1.358       .  A
C616        N931   1.358       .  A
C616       N1249   1.362       .  A
N617       C1248   1.362       .  A
C618        N619   1.374       .  A
C618        N623   1.330       .  A
N619        C620   1.383       .  A
C620        N621   1.378       .  A
N621        C622   1.363       .  A
C622       C1130   1.466       .  S
C622        N623   1.335       .  A
C624        C625   1.406       .  A
C624        C629   1.382       .  A
C625        C626   1.406       .  A
C625        H630   1.084       .  S
C626        C627   1.381       .  A
C627        C628   1.387       .  A
C627        H631   1.086       .  S
C628        C629   1.381       .  A
C629        H632   1.086       .  S
C633        C678   1.451       .  S
C633       C1902   1.397   1_455  A
C634        C635   1.394       .  A
C634        H639   1.085       .  S
C635        C769   1.462       .  S
C635       C1900   1.403   1_455  A
C636       C1899   1.403       .  A
C636        H640   1.085       .  S
C637        C731   1.456       .  S
C637        C638   1.400       .  A
C638       C1897   1.397       .  A
C638        H641   1.085       .  S
C642        C742   1.457       .  S
C642        C643   1.410       .  A
C642        C647   1.383       .  A
C643        C644   1.408       .  A
C643        H648   1.084       .  S
C644        C780   1.463       .  S
C644        C645   1.388       .  A
C645        C646   1.398       .  A
C645        H649   1.085       .  S
C646        C667   1.436       .  S
C646        C647   1.391       .  A
C647        H650   1.085       .  S
C651        C909   1.456       .  S
C651        N968   1.358       .  A
C651        N972   1.356       .  A
N652        C967   1.358       .  A
N652        C653   1.353       .  A
C653        C705   1.464       .  S
C653        N654   1.360       .  A
N654        C655   1.358       .  A
C655        C735   1.462       .  S
C655        N656   1.356       .  A
N656        C967   1.356       .  A
O657       Ni663   1.930       .  S
O657        C678   1.275       .  A
O658       Ni681   1.855       .  S
O658        C667   1.265       .  A
O659       Ni663   1.880       .  S
O659       Ni681   1.915       .  S
O659       Ni675   1.929       .  S
O659        H682   0.966       .  S
C660        C866   1.452   1_554  S
C660        O677   1.291       .  A
C660        O669   1.278       .  A
O661       Ni680   1.923       .  S
O661        C667   1.279       .  A
O662       Ni680   1.940       .  S
O662        C664   1.272       .  A
Ni663       O666   1.930       .  S
Ni663       O668   1.913       .  S
C664        O674   1.268       .  A
O665       Ni681   1.916       .  S
O665        C671   1.256       .  A
O666        C671   1.280       .  A
O668        C670   1.272       .  A
O669       Ni680   1.913       .  S
C670       C1953   1.497   1_455  S
C670        O676   1.281       .  A
C671        C934   1.478       .  S
H672        O673   0.967       .  S
O673       Ni681   1.855       .  S
O673       Ni675   1.858       .  S
O673       Ni680   1.873       .  S
O674       Ni675   1.953       .  S
Ni675       O679   1.893       .  S
Ni675       O677   1.918       .  S
O676       Ni681   1.966       .  S
C678        O679   1.269       .  A
C683       C1123   1.515   1_554  S
C683        N684   1.375       .  A
C683        N688   1.344       .  A
N684        C685   1.391       .  A
C685        N686   1.376       .  A
N686        C687   1.362       .  A
C687        C698   1.486       .  S
C687        N688   1.351       .  A
C689       C1934   1.497       .  S
C689        N690   1.364       .  A
C689        N694   1.375       .  A
N690        C691   1.353       .  A
C691        C903   1.487       .  S
C691        N692   1.358       .  A
N692        C693   1.363       .  A
C693        C709   1.491       .  S
C693        N694   1.376       .  A
O695       Ni701   1.908       .  S
O695        C716   1.268       .  A
O696       Ni719   1.912       .  S
O696        C705   1.273       .  A
O697       Ni701   1.882       .  S
O697       Ni719   1.893       .  S
O697       Ni713   1.949       .  S
O697        H720   0.966       .  S
C698        O715   1.296       .  A
C698        O707   1.279       .  A
O699       Ni718   1.922       .  S
O699        C705   1.269       .  A
O700       Ni718   1.901       .  S
O700        C702   1.268       .  A
Ni701       O704   1.938       .  S
Ni701       O706   1.926       .  S
C702        C755   1.505       .  S
C702        O712   1.285       .  A
O703       Ni719   1.956       .  S
O703        C709   1.282       .  A
O704        C709   1.281       .  A
O706        C708   1.271       .  A
O707       Ni718   1.893       .  S
C708        C785   1.518       .  S
C708        O714   1.285       .  A
H710        O711   0.967       .  S
O711       Ni719   1.904       .  S
O711       Ni713   1.906       .  S
O711       Ni718   1.870       .  S
O712       Ni713   1.983       .  S
Ni713       O717   1.952       .  S
Ni713       O715   1.975       .  S
O714       Ni719   1.990       .  S
C716        C751   1.470       .  S
C716        O717   1.285       .  A
O721       Ni727   1.895       .  S
O721        C742   1.263       .  A
O722       Ni745   1.911       .  S
O722        C731   1.272       .  A
O723       Ni727   1.905       .  S
O723       Ni745   1.912       .  S
O723       Ni739   1.945       .  S
O723        H746   0.966       .  S
C724        O741   1.292       .  A
O725       Ni744   1.914       .  S
O725        C731   1.268       .  A
O726       Ni744   1.895       .  S
O726        C728   1.262       .  A
Ni727       O730   1.915       .  S
Ni727       O732   1.915       .  S
C728        C924   1.437       .  S
C728        O738   1.255       .  A
O729       Ni745   1.917       .  S
O729        C735   1.267       .  A
O730        C735   1.267       .  A
O732        C734   1.272       .  A
C734        C930   1.472       .  S
C734        O740   1.278       .  A
H736        O737   0.967       .  S
O737       Ni745   1.885       .  S
O737       Ni739   1.889       .  S
O737       Ni744   1.878       .  S
O738       Ni739   1.896       .  S
Ni739       O743   1.916       .  S
Ni739       O741   1.945       .  S
O740       Ni745   1.926       .  S
C742        O743   1.273       .  A
C747        C845   1.488       .  S
C747        N748   1.349       .  A
C747        N752   1.360       .  A
N748        C749   1.368       .  A
C749        N750   1.364       .  A
N750        C751   1.363       .  A
C751        N752   1.363       .  A
C753        C813   1.488       .  S
C753        N754   1.377       .  A
C753        N758   1.361       .  A
N754        C755   1.373       .  A
C755        N756   1.369       .  A
N756        C757   1.359       .  A
C757        C773   1.483       .  S
C757        N758   1.353       .  A
O759       Ni765   1.898       .  S
O759        C780   1.264       .  A
O760       Ni783   1.920       .  S
O760        C769   1.276       .  A
O761       Ni765   1.893       .  S
O761       Ni783   1.909       .  S
O761       Ni777   1.950       .  S
O761        H784   0.966       .  S
C762       C2051   1.478   1_455  S
C762        O779   1.290       .  A
C762        O771   1.279       .  A
O763       Ni782   1.908       .  S
O763        C769   1.266       .  A
O764       Ni782   1.886       .  S
O764        C766   1.265       .  A
Ni765       O768   1.914       .  S
Ni765       O770   1.916       .  S
C766        C826   1.457   1_554  S
C766        O776   1.265       .  A
O767       Ni783   1.969       .  S
O767        C773   1.287       .  A
O768        C773   1.271       .  A
O770        C772   1.272       .  A
O771       Ni782   1.900       .  S
C772        C832   1.479       .  S
C772        O778   1.269       .  A
H774        O775   0.967       .  S
O775       Ni783   1.910       .  S
O775       Ni777   1.902       .  S
O775       Ni782   1.867       .  S
O776       Ni777   1.933       .  S
Ni777       O781   1.927       .  S
Ni777       O779   1.957       .  S
O778       Ni783   1.940       .  S
C780        O781   1.274       .  A
C785        N786   1.375       .  A
C785        N790   1.387       .  A
N786        C787   1.362       .  A
C787       C2026   1.478       .  S
C787        N788   1.351       .  A
N788       C1105   1.341       .  A
C789        C851   1.508       .  S
C789       N1104   1.341       .  A
C789       N1106   1.384       .  A
N790       C1105   1.384       .  A
C791        C859   1.479       .  S
C791       C2060   1.411       .  A
C792        C793   1.405       .  A
C792        H797   1.084       .  S
C793        C917   1.467       .  S
C793       C2058   1.396       .  A
C794       C2057   1.396   1_455  A
C794        H798   1.086       .  S
C795        C821   1.472       .  S
C795        C796   1.408       .  A
C796       C2055   1.411   1_455  A
C796        H799   1.084       .  S
O800       Ni806   1.931       .  S
O800        C821   1.277       .  A
O801       Ni824   1.884       .  S
O801        C810   1.264       .  A
O802       Ni806   1.876       .  S
O802       Ni824   1.904       .  S
O802       Ni818   1.896       .  S
O802        H825   0.967       .  S
C803        C828   1.455       .  S
C803        O820   1.279       .  A
C803        O812   1.265       .  A
O804       Ni823   1.899       .  S
O804        C810   1.263       .  A
O805       Ni823   1.932       .  S
O805        C807   1.278       .  A
Ni806       O809   1.926       .  S
Ni806       O811   1.905       .  S
C807        C999   1.515       .  S
C807        O817   1.278       .  A
O808       Ni824   1.931       .  S
O808        C814   1.271       .  A
O809        C814   1.275       .  A
C810        C940   1.440       .  S
O811        C813   1.268       .  A
O812       Ni823   1.898       .  S
C813        O819   1.279       .  A
H815        O816   0.966       .  S
O816       Ni824   1.910       .  S
O816       Ni818   1.910       .  S
O816       Ni823   1.897       .  S
O817       Ni818   1.975       .  S
Ni818       O822   1.915       .  S
Ni818       O820   1.938       .  S
O819       Ni824   1.984       .  S
C821        O822   1.279       .  A
C826       N1143   1.349       .  A
C826       N1147   1.371       .  A
N827       C1142   1.349       .  A
N827        C828   1.338       .  A
C828        N829   1.356       .  A
N829        C830   1.366       .  A
C830        C883   1.487       .  S
C830        N831   1.369       .  A
N831       C1142   1.371       .  A
C832        N833   1.366       .  A
C832        N837   1.344       .  A
N833        C834   1.376       .  A
C834       C2105   1.467   1_455  S
C834        N835   1.364       .  A
N835        C836   1.351       .  A
C836        C884   1.458       .  S
C836        N837   1.346       .  A
O838       Ni844   1.964       .  S
O838        C859   1.289       .  A
O839       Ni862   1.860       .  S
O839        C848   1.256       .  A
O840       Ni844   1.868       .  S
O840       Ni862   1.867       .  S
O840       Ni856   1.877       .  S
O840        H863   0.967       .  S
C841       C2098   1.467       .  S
C841        O858   1.272       .  A
C841        O850   1.274       .  A
O842       Ni861   1.894       .  S
O842        C848   1.263       .  A
O843       Ni861   1.902       .  S
O843        C845   1.268       .  A
Ni844       O847   1.940       .  S
Ni844       O849   1.955       .  S
C845        O855   1.285       .  A
O846       Ni862   1.911       .  S
O846        C852   1.282       .  A
O847        C852   1.284       .  A
C848        C944   1.416       .  S
O849        C851   1.284       .  A
O850       Ni861   1.917       .  S
C851        O857   1.261       .  A
C852        C932   1.464       .  S
H853        O854   0.965       .  S
O854       Ni862   1.939       .  S
O854       Ni856   1.900       .  S
O854       Ni861   1.885       .  S
O855       Ni856   1.966       .  S
Ni856       O860   1.898       .  S
Ni856       O858   1.933       .  S
O857       Ni862   1.947       .  S
C859        O860   1.278       .  A
C864       C2174   1.455   1_455  S
C864        N865   1.352       .  A
C864        N869   1.368       .  A
N865       C1182   1.333       .  A
C866       N1181   1.333       .  A
C866       N1183   1.350       .  A
N867       C1182   1.350       .  A
N867        C868   1.357       .  A
C868        C880   1.460       .  S
C868        N869   1.368       .  A
O870       Ni876   1.922       .  S
O870        C891   1.268       .  A
O871       Ni894   1.941       .  S
O871        C880   1.278       .  A
O872       Ni876   1.869       .  S
O872       Ni894   1.902       .  S
O872       Ni888   1.890       .  S
O872        H895   0.966       .  S
C873        C928   1.468       .  S
C873        O890   1.280       .  A
C873        O882   1.281       .  A
O874       Ni893   1.910       .  S
O874        C880   1.266       .  A
O875       Ni893   1.915       .  S
O875        C877   1.265       .  A
Ni876       O879   1.899       .  S
Ni876       O881   1.895       .  S
C877        C936   1.498       .  S
C877        O887   1.281       .  A
O878       Ni894   1.933       .  S
O878        C884   1.286       .  A
O879        C884   1.279       .  A
O881        C883   1.266       .  A
O882       Ni893   1.928       .  S
C883        O889   1.280       .  A
H885        O886   0.966       .  S
O886       Ni894   1.930       .  S
O886       Ni888   1.887       .  S
O886       Ni893   1.876       .  S
O887       Ni888   1.976       .  S
Ni888       O892   1.919       .  S
Ni888       O890   1.937       .  S
O889       Ni894   1.966       .  S
C891        C926   1.467       .  S
C891        O892   1.276       .  A
O896       Ni902   1.918       .  S
O896        C917   1.266       .  A
O897       Ni920   1.900       .  S
O897        C906   1.263       .  A
O898       Ni902   1.881       .  S
O898       Ni920   1.898       .  S
O898       Ni914   1.879       .  S
O898        H921   0.966       .  S
C899        C922   1.444       .  S
C899        O916   1.269       .  A
C899        O908   1.267       .  A
O900       Ni919   1.892       .  S
O900        C906   1.261       .  A
O901       Ni919   1.925       .  S
O901        C903   1.274       .  A
Ni902       O905   1.910       .  S
Ni902       O907   1.902       .  S
C903        O913   1.278       .  A
O904       Ni920   1.917       .  S
O904        C910   1.278       .  A
O905        C910   1.283       .  A
C906        C942   1.445       .  S
O907        C909   1.260       .  A
O908       Ni919   1.909       .  S
C909        O915   1.261       .  A
C910       C2128   1.455       .  S
H911        O912   0.966       .  S
O912       Ni920   1.925       .  S
O912       Ni914   1.908       .  S
O912       Ni919   1.904       .  S
O913       Ni914   1.939       .  S
Ni914       O918   1.926       .  S
Ni914       O916   1.899       .  S
O915       Ni920   1.917       .  S
C917        O918   1.274       .  A
C922        N923   1.343       .  A
C922        N927   1.361       .  A
N923        C924   1.341       .  A
C924        N925   1.358       .  A
N925        C926   1.354       .  A
C926        N927   1.364       .  A
C928       N1245   1.360       .  A
C928        N933   1.361       .  A
N929       C1244   1.361       .  A
N929        C930   1.360   1_556  A
C930        N931   1.352   1_554  A
C934        N935   1.374       .  A
C934        N939   1.330       .  A
N935        C936   1.383       .  A
C936        N937   1.378       .  A
N937        C938   1.363       .  A
C938        N939   1.335       .  A
C940        C941   1.406       .  A
C940        C945   1.383       .  A
C941        C942   1.406       .  A
C941        H946   1.084       .  S
C942        C943   1.381       .  A
C943        C944   1.387       .  A
C943        H947   1.086       .  S
C944        C945   1.381       .  A
C945        H948   1.086       .  S
C949        C994   1.451       .  S
C949       C2218   1.397   1_455  A
C950        C951   1.394       .  A
C950        H955   1.085       .  S
C951       C1085   1.462       .  S
C951       C2216   1.403   1_455  A
C952       C2215   1.403       .  A
C952        H956   1.085       .  S
C953       C1047   1.456       .  S
C953        C954   1.400       .  A
C954       C2213   1.397       .  A
C954        H957   1.085       .  S
C958       C1058   1.457       .  S
C958        C959   1.410       .  A
C958        C963   1.383       .  A
C959        C960   1.408       .  A
C959        H964   1.084       .  S
C960       C1096   1.463       .  S
C960        C961   1.388       .  A
C961        C962   1.398       .  A
C961        H965   1.085       .  S
C962        C983   1.436       .  S
C962        C963   1.391       .  A
C963        H966   1.085       .  S
C967       C1225   1.456   1_554  S
N968        C969   1.353       .  A
C969       C1021   1.464       .  S
C969        N970   1.360       .  A
N970        C971   1.358       .  A
C971       C1051   1.462       .  S
C971        N972   1.356       .  A
O973       Ni979   1.930       .  S
O973        C994   1.275       .  A
O974       Ni997   1.854       .  S
O974        C983   1.265       .  A
O975       Ni979   1.880       .  S
O975       Ni997   1.915       .  S
O975       Ni991   1.929       .  S
O975        H998   0.966       .  S
C976       C1182   1.452       .  S
C976        O993   1.291       .  A
C976        O985   1.278       .  A
O977       Ni996   1.923       .  S
O977        C983   1.279       .  A
O978       Ni996   1.940       .  S
O978        C980   1.272       .  A
Ni979       O982   1.931       .  S
Ni979       O984   1.913       .  S
C980        O990   1.268       .  A
O981       Ni997   1.916       .  S
O981        C987   1.256       .  A
O982        C987   1.280       .  A
O984        C986   1.272       .  A
O985       Ni996   1.913       .  S
C986       C2269   1.497   1_455  S
C986        O992   1.281       .  A
C987       C1250   1.478       .  S
H988        O989   0.967       .  S
O989       Ni997   1.855       .  S
O989       Ni991   1.858       .  S
O989       Ni996   1.873       .  S
O990       Ni991   1.953       .  S
Ni991       O995   1.893       .  S
Ni991       O993   1.918       .  S
O992       Ni997   1.966       .  S
C994        O995   1.269       .  A
C999       N1000   1.375       .  A
C999       N1004   1.344       .  A
N1000      C1001   1.391       .  A
C1001      N1002   1.375       .  A
N1002      C1003   1.362       .  A
C1003      C1014   1.486       .  S
C1003      N1004   1.351       .  A
C1005      C2250   1.497       .  S
C1005      N1006   1.364       .  A
C1005      N1010   1.375       .  A
N1006      C1007   1.353       .  A
C1007      C1219   1.487       .  S
C1007      N1008   1.358       .  A
N1008      C1009   1.363       .  A
C1009      C1025   1.491       .  S
C1009      N1010   1.376       .  A
O1011     Ni1017   1.908       .  S
O1011      C1032   1.268       .  A
O1012     Ni1035   1.913       .  S
O1012      C1021   1.273       .  A
O1013     Ni1017   1.882       .  S
O1013     Ni1035   1.893       .  S
O1013     Ni1029   1.949       .  S
O1013      H1036   0.966       .  S
C1014      O1031   1.296       .  A
C1014      O1023   1.279       .  A
O1015     Ni1034   1.922       .  S
O1015      C1021   1.269       .  A
O1016     Ni1034   1.901       .  S
O1016      C1018   1.268       .  A
Ni1017     O1020   1.938       .  S
Ni1017     O1022   1.926       .  S
C1018      C1071   1.505       .  S
C1018      O1028   1.285       .  A
O1019     Ni1035   1.956       .  S
O1019      C1025   1.282       .  A
O1020      C1025   1.281       .  A
O1022      C1024   1.271       .  A
O1023     Ni1034   1.892       .  S
C1024      C1101   1.518       .  S
C1024      O1030   1.285       .  A
H1026      O1027   0.967       .  S
O1027     Ni1035   1.904       .  S
O1027     Ni1029   1.906       .  S
O1027     Ni1034   1.870       .  S
O1028     Ni1029   1.983       .  S
Ni1029     O1033   1.952       .  S
Ni1029     O1031   1.975       .  S
O1030     Ni1035   1.990       .  S
C1032      C1067   1.470       .  S
C1032      O1033   1.285       .  A
O1037     Ni1043   1.895       .  S
O1037      C1058   1.263       .  A
O1038     Ni1061   1.911       .  S
O1038      C1047   1.272       .  A
O1039     Ni1043   1.905       .  S
O1039     Ni1061   1.912       .  S
O1039     Ni1055   1.945       .  S
O1039      H1062   0.966       .  S
C1040      O1057   1.292       .  A
O1041     Ni1060   1.914       .  S
O1041      C1047   1.268       .  A
O1042     Ni1060   1.895       .  S
O1042      C1044   1.262       .  A
Ni1043     O1046   1.915       .  S
Ni1043     O1048   1.915       .  S
C1044      C1240   1.437       .  S
C1044      O1054   1.255       .  A
O1045     Ni1061   1.917       .  S
O1045      C1051   1.267       .  A
O1046      C1051   1.267       .  A
O1048      C1050   1.273       .  A
C1050      C1246   1.472       .  S
C1050      O1056   1.278       .  A
H1052      O1053   0.967       .  S
O1053     Ni1061   1.886       .  S
O1053     Ni1055   1.889       .  S
O1053     Ni1060   1.878       .  S
O1054     Ni1055   1.896       .  S
Ni1055     O1059   1.916       .  S
Ni1055     O1057   1.945       .  S
O1056     Ni1061   1.926       .  S
C1058      O1059   1.273       .  A
C1063      C1161   1.488       .  S
C1063      N1064   1.349       .  A
C1063      N1068   1.360       .  A
N1064      C1065   1.368       .  A
C1065      N1066   1.364       .  A
N1066      C1067   1.363       .  A
C1067      N1068   1.363       .  A
C1069      C1129   1.488       .  S
C1069      N1070   1.377       .  A
C1069      N1074   1.361       .  A
N1070      C1071   1.373       .  A
C1071      N1072   1.369       .  A
N1072      C1073   1.359       .  A
C1073      C1089   1.484       .  S
C1073      N1074   1.353       .  A
O1075     Ni1081   1.898       .  S
O1075      C1096   1.264       .  A
O1076     Ni1099   1.920       .  S
O1076      C1085   1.276       .  A
O1077     Ni1081   1.893       .  S
O1077     Ni1099   1.909       .  S
O1077     Ni1093   1.950       .  S
O1077      H1100   0.966       .  S
C1078      C2367   1.478   1_455  S
C1078      O1095   1.290       .  A
C1078      O1087   1.279       .  A
O1079     Ni1098   1.908       .  S
O1079      C1085   1.266       .  A
O1080     Ni1098   1.886       .  S
O1080      C1082   1.265       .  A
Ni1081     O1084   1.914       .  S
Ni1081     O1086   1.916       .  S
C1082      C1142   1.457       .  S
C1082      O1092   1.265       .  A
O1083     Ni1099   1.969       .  S
O1083      C1089   1.287       .  A
O1084      C1089   1.271       .  A
O1086      C1088   1.272       .  A
O1087     Ni1098   1.900       .  S
C1088      C1148   1.479       .  S
C1088      O1094   1.269       .  A
H1090      O1091   0.967       .  S
O1091     Ni1099   1.910       .  S
O1091     Ni1093   1.902       .  S
O1091     Ni1098   1.867       .  S
O1092     Ni1093   1.933       .  S
Ni1093     O1097   1.927       .  S
Ni1093     O1095   1.958       .  S
O1094     Ni1099   1.940       .  S
C1096      O1097   1.274       .  A
C1101      N1102   1.375       .  A
C1101      N1106   1.387       .  A
N1102      C1103   1.362       .  A
C1103      C2342   1.478       .  S
C1103      N1104   1.351       .  A
C1105      C1167   1.508   1_554  S
C1107      C1175   1.479       .  S
C1107      C2376   1.411       .  A
C1108      C1109   1.405       .  A
C1108      H1113   1.084       .  S
C1109      C1233   1.467       .  S
C1109      C2374   1.396       .  A
C1110      C2373   1.396   1_455  A
C1110      H1114   1.086       .  S
C1111      C1137   1.472       .  S
C1111      C1112   1.408       .  A
C1112      C2371   1.411   1_455  A
C1112      H1115   1.084       .  S
O1116     Ni1122   1.931       .  S
O1116      C1137   1.277       .  A
O1117     Ni1140   1.884       .  S
O1117      C1126   1.264       .  A
O1118     Ni1122   1.876       .  S
O1118     Ni1140   1.904       .  S
O1118     Ni1134   1.896       .  S
O1118      H1141   0.967       .  S
C1119      C1144   1.455       .  S
C1119      O1136   1.279       .  A
C1119      O1128   1.265       .  A
O1120     Ni1139   1.899       .  S
O1120      C1126   1.263       .  A
O1121     Ni1139   1.932       .  S
O1121      C1123   1.278       .  A
Ni1122     O1125   1.926       .  S
Ni1122     O1127   1.905       .  S
C1123      O1133   1.278       .  A
O1124     Ni1140   1.931       .  S
O1124      C1130   1.271       .  A
O1125      C1130   1.275       .  A
C1126      C1256   1.440       .  S
O1127      C1129   1.268       .  A
O1128     Ni1139   1.898       .  S
C1129      O1135   1.279       .  A
H1131      O1132   0.966       .  S
O1132     Ni1140   1.910       .  S
O1132     Ni1134   1.910       .  S
O1132     Ni1139   1.897       .  S
O1133     Ni1134   1.975       .  S
Ni1134     O1138   1.915       .  S
Ni1134     O1136   1.938       .  S
O1135     Ni1140   1.984       .  S
C1137      O1138   1.279       .  A
N1143      C1144   1.338       .  A
C1144      N1145   1.356       .  A
N1145      C1146   1.366       .  A
C1146      C1199   1.487       .  S
C1146      N1147   1.369       .  A
C1148      N1149   1.366       .  A
C1148      N1153   1.344       .  A
N1149      C1150   1.376       .  A
C1150      C2421   1.467   1_455  S
C1150      N1151   1.364       .  A
N1151      C1152   1.351       .  A
C1152      C1200   1.458       .  S
C1152      N1153   1.346       .  A
O1154     Ni1160   1.964       .  S
O1154      C1175   1.289       .  A
O1155     Ni1178   1.860       .  S
O1155      C1164   1.256       .  A
O1156     Ni1160   1.868       .  S
O1156     Ni1178   1.867       .  S
O1156     Ni1172   1.877       .  S
O1156      H1179   0.967       .  S
C1157      C2414   1.467       .  S
C1157      O1174   1.272       .  A
C1157      O1166   1.274       .  A
O1158     Ni1177   1.894       .  S
O1158      C1164   1.263       .  A
O1159     Ni1177   1.902       .  S
O1159      C1161   1.268       .  A
Ni1160     O1163   1.940       .  S
Ni1160     O1165   1.955       .  S
C1161      O1171   1.285       .  A
O1162     Ni1178   1.911       .  S
O1162      C1168   1.282       .  A
O1163      C1168   1.284       .  A
C1164      C1260   1.415       .  S
O1165      C1167   1.284       .  A
O1166     Ni1177   1.917       .  S
C1167      O1173   1.261       .  A
C1168      C1248   1.464       .  S
H1169      O1170   0.965       .  S
O1170     Ni1178   1.939       .  S
O1170     Ni1172   1.900       .  S
O1170     Ni1177   1.885       .  S
O1171     Ni1172   1.966       .  S
Ni1172     O1176   1.898       .  S
Ni1172     O1174   1.933       .  S
O1173     Ni1178   1.947       .  S
C1175      O1176   1.278       .  A
C1180      C2490   1.455   1_455  S
C1180      N1181   1.352       .  A
C1180      N1185   1.368       .  A
N1183      C1184   1.357       .  A
C1184      C1196   1.460       .  S
C1184      N1185   1.368       .  A
O1186     Ni1192   1.922       .  S
O1186      C1207   1.268       .  A
O1187     Ni1210   1.940       .  S
O1187      C1196   1.278       .  A
O1188     Ni1192   1.869       .  S
O1188     Ni1210   1.902       .  S
O1188     Ni1204   1.890       .  S
O1188      H1211   0.966       .  S
C1189      C1244   1.468       .  S
C1189      O1206   1.280       .  A
C1189      O1198   1.281       .  A
O1190     Ni1209   1.910       .  S
O1190      C1196   1.266       .  A
O1191     Ni1209   1.915       .  S
O1191      C1193   1.265       .  A
Ni1192     O1195   1.899       .  S
Ni1192     O1197   1.895       .  S
C1193      C1252   1.498       .  S
C1193      O1203   1.281       .  A
O1194     Ni1210   1.933       .  S
O1194      C1200   1.286       .  A
O1195      C1200   1.279       .  A
O1197      C1199   1.266       .  A
O1198     Ni1209   1.928       .  S
C1199      O1205   1.280       .  A
H1201      O1202   0.966       .  S
O1202     Ni1210   1.930       .  S
O1202     Ni1204   1.887       .  S
O1202     Ni1209   1.876       .  S
O1203     Ni1204   1.976       .  S
Ni1204     O1208   1.919       .  S
Ni1204     O1206   1.937       .  S
O1205     Ni1210   1.967       .  S
C1207      C1242   1.467       .  S
C1207      O1208   1.276       .  A
O1212     Ni1218   1.918       .  S
O1212      C1233   1.267       .  A
O1213     Ni1236   1.900       .  S
O1213      C1222   1.263       .  A
O1214     Ni1218   1.881       .  S
O1214     Ni1236   1.898       .  S
O1214     Ni1230   1.879       .  S
O1214      H1237   0.966       .  S
C1215      C1238   1.444       .  S
C1215      O1232   1.269       .  A
C1215      O1224   1.267       .  A
O1216     Ni1235   1.892       .  S
O1216      C1222   1.261       .  A
O1217     Ni1235   1.925       .  S
O1217      C1219   1.274       .  A
Ni1218     O1221   1.910       .  S
Ni1218     O1223   1.902       .  S
C1219      O1229   1.278       .  A
O1220     Ni1236   1.917       .  S
O1220      C1226   1.278       .  A
O1221      C1226   1.283       .  A
C1222      C1258   1.445       .  S
O1223      C1225   1.260       .  A
O1224     Ni1235   1.909       .  S
C1225      O1231   1.261       .  A
C1226      C2444   1.455       .  S
H1227      O1228   0.966       .  S
O1228     Ni1236   1.925       .  S
O1228     Ni1230   1.908       .  S
O1228     Ni1235   1.905       .  S
O1229     Ni1230   1.939       .  S
Ni1230     O1234   1.926       .  S
Ni1230     O1232   1.899       .  S
O1231     Ni1236   1.916       .  S
C1233      O1234   1.274       .  A
C1238      N1239   1.343       .  A
C1238      N1243   1.361       .  A
N1239      C1240   1.341       .  A
C1240      N1241   1.358       .  A
N1241      C1242   1.354       .  A
C1242      N1243   1.364       .  A
C1244      N1249   1.361       .  A
N1245      C1246   1.360       .  A
C1246      N1247   1.352       .  A
C1250      N1251   1.374       .  A
C1250      N1255   1.330       .  A
N1251      C1252   1.383       .  A
C1252      N1253   1.378       .  A
N1253      C1254   1.363       .  A
C1254      N1255   1.335       .  A
C1256      C1257   1.406       .  A
C1256      C1261   1.382       .  A
C1257      C1258   1.406       .  A
C1257      H1262   1.084       .  S
C1258      C1259   1.381       .  A
C1259      C1260   1.387       .  A
C1259      H1263   1.086       .  S
C1260      C1261   1.381       .  A
C1261      H1264   1.086       .  S
C1265      C1310   1.451       .  S
C1265      C1898   1.401       .  A
C1266      C1897   1.401   1_545  A
C1266      C1267   1.394       .  A
C1266      H1271   1.085       .  S
C1267      C1401   1.462       .  S
C1268      C1901   1.402   1_545  A
C1268      H1272   1.085       .  S
C1269      C1363   1.456       .  S
C1269      C1900   1.402       .  A
C1269      C1270   1.400       .  A
C1270      H1273   1.085       .  S
C1274      C1374   1.457       .  S
C1274      C1275   1.410       .  A
C1274      C1279   1.383       .  A
C1275      C1276   1.408       .  A
C1275      H1280   1.084       .  S
C1276      C1412   1.463       .  S
C1276      C1277   1.388       .  A
C1277      C1278   1.398       .  A
C1277      H1281   1.085       .  S
C1278      C1299   1.436       .  S
C1278      C1279   1.391       .  A
C1279      H1282   1.085       .  S
C1283      C1541   1.456       .  S
C1283      N1600   1.358       .  A
C1283      N1604   1.356       .  A
N1284      C1599   1.358       .  A
N1284      C1285   1.353       .  A
C1285      C1337   1.464       .  S
C1285      N1286   1.360       .  A
N1286      C1287   1.358       .  A
C1287      C1367   1.462       .  S
C1287      N1288   1.356       .  A
N1288      C1599   1.356       .  A
O1289     Ni1295   1.930       .  S
O1289      C1310   1.275       .  A
O1290     Ni1313   1.855       .  S
O1290      C1299   1.265       .  A
O1291     Ni1295   1.880       .  S
O1291     Ni1313   1.915       .  S
O1291     Ni1307   1.929       .  S
O1291      H1314   0.966       .  S
C1292      C1498   1.452   1_554  S
C1292      O1309   1.291       .  A
C1292      O1301   1.278       .  A
O1293     Ni1312   1.923       .  S
O1293      C1299   1.279       .  A
O1294     Ni1312   1.940       .  S
O1294      C1296   1.272       .  A
Ni1295     O1298   1.930       .  S
Ni1295     O1300   1.913       .  S
C1296      C1949   1.502       .  S
C1296      O1306   1.268       .  A
O1297     Ni1313   1.916       .  S
O1297      C1303   1.256       .  A
O1298      C1303   1.280       .  A
O1300      C1302   1.272       .  A
O1301     Ni1312   1.913       .  S
C1302      O1308   1.281       .  A
C1303      C1566   1.478       .  S
H1304      O1305   0.967       .  S
O1305     Ni1313   1.855       .  S
O1305     Ni1307   1.858       .  S
O1305     Ni1312   1.873       .  S
O1306     Ni1307   1.953       .  S
Ni1307     O1311   1.893       .  S
Ni1307     O1309   1.918       .  S
O1308     Ni1313   1.966       .  S
C1310      O1311   1.269       .  A
C1315      C1755   1.515   1_554  S
C1315      N1316   1.375       .  A
C1315      N1320   1.344       .  A
N1316      C1317   1.391       .  A
C1317      C1928   1.502   1_545  S
C1317      N1318   1.376       .  A
N1318      C1319   1.362       .  A
C1319      C1330   1.486       .  S
C1319      N1320   1.351       .  A
C1321      N1322   1.364       .  A
C1321      N1326   1.375       .  A
N1322      C1323   1.353       .  A
C1323      C1535   1.487       .  S
C1323      N1324   1.358       .  A
N1324      C1325   1.363       .  A
C1325      C1341   1.491       .  S
C1325      N1326   1.376       .  A
O1327     Ni1333   1.908       .  S
O1327      C1348   1.268       .  A
O1328     Ni1351   1.912       .  S
O1328      C1337   1.273       .  A
O1329     Ni1333   1.882       .  S
O1329     Ni1351   1.893       .  S
O1329     Ni1345   1.949       .  S
O1329      H1352   0.966       .  S
C1330      O1347   1.296       .  A
C1330      O1339   1.279       .  A
O1331     Ni1350   1.922       .  S
O1331      C1337   1.269       .  A
O1332     Ni1350   1.901       .  S
O1332      C1334   1.268       .  A
Ni1333     O1336   1.938       .  S
Ni1333     O1338   1.926       .  S
C1334      C1387   1.505       .  S
C1334      O1344   1.285       .  A
O1335     Ni1351   1.956       .  S
O1335      C1341   1.282       .  A
O1336      C1341   1.281       .  A
O1338      C1340   1.271       .  A
O1339     Ni1350   1.893       .  S
C1340      C1417   1.518       .  S
C1340      O1346   1.285       .  A
H1342      O1343   0.967       .  S
O1343     Ni1351   1.904       .  S
O1343     Ni1345   1.906       .  S
O1343     Ni1350   1.870       .  S
O1344     Ni1345   1.983       .  S
Ni1345     O1349   1.952       .  S
Ni1345     O1347   1.975       .  S
O1346     Ni1351   1.990       .  S
C1348      C1383   1.470       .  S
C1348      O1349   1.285       .  A
O1353     Ni1359   1.895       .  S
O1353      C1374   1.263       .  A
O1354     Ni1377   1.911       .  S
O1354      C1363   1.272       .  A
O1355     Ni1359   1.905       .  S
O1355     Ni1377   1.912       .  S
O1355     Ni1371   1.945       .  S
O1355      H1378   0.966       .  S
C1356      C2013   1.469       .  S
C1356      O1373   1.292       .  A
C1356      O1997   1.279       .  A
O1357     Ni1376   1.914       .  S
O1357      C1363   1.268       .  A
O1358     Ni1376   1.895       .  S
O1358      C1360   1.262       .  A
Ni1359     O1362   1.915       .  S
Ni1359     O1364   1.915       .  S
C1360      C1556   1.437       .  S
C1360      O1370   1.255       .  A
O1361     Ni1377   1.917       .  S
O1361      C1367   1.267       .  A
O1362      C1367   1.267       .  A
O1364      C1366   1.272       .  A
O1365     Ni2008   1.909       .  S
O1365      C1988   1.279       .  A
C1366      C1562   1.472       .  S
C1366      O1372   1.278       .  A
H1368      O1369   0.967       .  S
O1369     Ni1377   1.885       .  S
O1369     Ni1371   1.889       .  S
O1369     Ni1376   1.878       .  S
O1370     Ni1371   1.896       .  S
Ni1371     O1375   1.916       .  S
Ni1371     O1373   1.945       .  S
O1372     Ni1377   1.926       .  S
C1374      O1375   1.273       .  A
Ni1376     O1997   1.909       .  S
C1379      C1477   1.488       .  S
C1379      N1380   1.349       .  A
C1379      N1384   1.360       .  A
N1380      C1381   1.368       .  A
C1381      C1988   1.469   1_545  S
C1381      N1382   1.364       .  A
N1382      C1383   1.363       .  A
C1383      N1384   1.363       .  A
C1385      C1445   1.488       .  S
C1385      N1386   1.377       .  A
C1385      N1390   1.361       .  A
N1386      C1387   1.373       .  A
C1387      N1388   1.369       .  A
N1388      C1389   1.359       .  A
C1389      C1405   1.483       .  S
C1389      N1390   1.353       .  A
O1391     Ni1397   1.898       .  S
O1391      C1412   1.264       .  A
O1392     Ni1415   1.920       .  S
O1392      C1401   1.276       .  A
O1393     Ni1397   1.893       .  S
O1393     Ni1415   1.909       .  S
O1393     Ni1409   1.950       .  S
O1393      H1416   0.966       .  S
C1394      O1411   1.290       .  A
C1394      O1403   1.279       .  A
O1395     Ni1414   1.908       .  S
O1395      C1401   1.266       .  A
O1396     Ni1414   1.886       .  S
O1396      C1398   1.265       .  A
Ni1397     O1400   1.914       .  S
Ni1397     O1402   1.916       .  S
C1398      C1458   1.457   1_554  S
C1398      O1408   1.265       .  A
O1399     Ni1415   1.969       .  S
O1399      C1405   1.287       .  A
O1400      C1405   1.271       .  A
O1402      C1404   1.272       .  A
O1403     Ni1414   1.900       .  S
C1404      C1464   1.479       .  S
C1404      O1410   1.269       .  A
H1406      O1407   0.967       .  S
O1407     Ni1415   1.910       .  S
O1407     Ni1409   1.902       .  S
O1407     Ni1414   1.867       .  S
O1408     Ni1409   1.933       .  S
Ni1409     O1413   1.927       .  S
Ni1409     O1411   1.957       .  S
O1410     Ni1415   1.940       .  S
C1412      O1413   1.274       .  A
C1417      N1418   1.375       .  A
C1417      N1422   1.387       .  A
N1418      C1419   1.362       .  A
C1419      N1420   1.351       .  A
N1420      C1737   1.341       .  A
C1421      C1483   1.508       .  S
C1421      N1736   1.341       .  A
C1421      N1738   1.384       .  A
N1422      C1737   1.384       .  A
C1423      C1491   1.479       .  S
C1423      C2056   1.410   1_545  A
C1424      C2055   1.410       .  A
C1424      C1425   1.405       .  A
C1424      H1429   1.084       .  S
C1425      C1549   1.467       .  S
C1426      C2059   1.399       .  A
C1426      H1430   1.086       .  S
C1427      C1453   1.472       .  S
C1427      C2058   1.399   1_545  A
C1427      C1428   1.408       .  A
C1428      H1431   1.084       .  S
O1432     Ni1438   1.931       .  S
O1432      C1453   1.277       .  A
O1433     Ni1456   1.884       .  S
O1433      C1442   1.264       .  A
O1434     Ni1438   1.876       .  S
O1434     Ni1456   1.904       .  S
O1434     Ni1450   1.896       .  S
O1434      H1457   0.967       .  S
C1435      C1460   1.455       .  S
C1435      O1452   1.279       .  A
C1435      O1444   1.265       .  A
O1436     Ni1455   1.899       .  S
O1436      C1442   1.263       .  A
O1437     Ni1455   1.932       .  S
O1437      C1439   1.278       .  A
Ni1438     O1441   1.926       .  S
Ni1438     O1443   1.905       .  S
C1439      C1631   1.515       .  S
C1439      O1449   1.278       .  A
O1440     Ni1456   1.931       .  S
O1440      C1446   1.271       .  A
O1441      C1446   1.275       .  A
C1442      C1572   1.440       .  S
O1443      C1445   1.268       .  A
O1444     Ni1455   1.898       .  S
C1445      O1451   1.279       .  A
C1446      C2202   1.466   1_545  S
H1447      O1448   0.966       .  S
O1448     Ni1456   1.910       .  S
O1448     Ni1450   1.910       .  S
O1448     Ni1455   1.897       .  S
O1449     Ni1450   1.975       .  S
Ni1450     O1454   1.915       .  S
Ni1450     O1452   1.938       .  S
O1451     Ni1456   1.984       .  S
C1453      O1454   1.279       .  A
C1458      N1775   1.349       .  A
C1458      N1779   1.371       .  A
N1459      C1774   1.349       .  A
N1459      C1460   1.338       .  A
C1460      N1461   1.356       .  A
N1461      C1462   1.366       .  A
C1462      C1515   1.487       .  S
C1462      N1463   1.369       .  A
N1463      C1774   1.371       .  A
C1464      N1465   1.366       .  A
C1464      N1469   1.344       .  A
N1465      C1466   1.376       .  A
C1466      N1467   1.364       .  A
N1467      C1468   1.351       .  A
C1468      C1516   1.458       .  S
C1468      N1469   1.346       .  A
O1470     Ni1476   1.964       .  S
O1470      C1491   1.289       .  A
O1471     Ni1494   1.860       .  S
O1471      C1480   1.256       .  A
O1472     Ni1476   1.868       .  S
O1472     Ni1494   1.867       .  S
O1472     Ni1488   1.877       .  S
O1472      H1495   0.967       .  S
C1473      O1490   1.272       .  A
C1473      O1482   1.274       .  A
O1474     Ni1493   1.894       .  S
O1474      C1480   1.263       .  A
O1475     Ni1493   1.902       .  S
O1475      C1477   1.268       .  A
Ni1476     O1479   1.940       .  S
Ni1476     O1481   1.955       .  S
C1477      O1487   1.285       .  A
O1478     Ni1494   1.911       .  S
O1478      C1484   1.282       .  A
O1479      C1484   1.284       .  A
C1480      C1576   1.416       .  S
O1481      C1483   1.284       .  A
O1482     Ni1493   1.917       .  S
C1483      O1489   1.261       .  A
C1484      C1564   1.464   1_545  S
H1485      O1486   0.965       .  S
O1486     Ni1494   1.939       .  S
O1486     Ni1488   1.900       .  S
O1486     Ni1493   1.885       .  S
O1487     Ni1488   1.966       .  S
Ni1488     O1492   1.898       .  S
Ni1488     O1490   1.933       .  S
O1489     Ni1494   1.947       .  S
C1491      O1492   1.278       .  A
C1496      N1497   1.352       .  A
C1496      N1501   1.368       .  A
N1497      C1814   1.333       .  A
C1498      N1813   1.333       .  A
C1498      N1815   1.350       .  A
N1499      C1814   1.350       .  A
N1499      C1500   1.357       .  A
C1500      C1512   1.460       .  S
C1500      N1501   1.368       .  A
O1502     Ni1508   1.922       .  S
O1502      C1523   1.268       .  A
O1503     Ni1526   1.941       .  S
O1503      C1512   1.278       .  A
O1504     Ni1508   1.869       .  S
O1504     Ni1526   1.902       .  S
O1504     Ni1520   1.890       .  S
O1504      H1527   0.966       .  S
C1505      C1560   1.468       .  S
C1505      O1522   1.280       .  A
C1505      O1514   1.281       .  A
O1506     Ni1525   1.910       .  S
O1506      C1512   1.266       .  A
O1507     Ni1525   1.915       .  S
O1507      C1509   1.265       .  A
Ni1508     O1511   1.899       .  S
Ni1508     O1513   1.895       .  S
C1509      C1568   1.498       .  S
C1509      O1519   1.281       .  A
O1510     Ni1526   1.933       .  S
O1510      C1516   1.286       .  A
O1511      C1516   1.279       .  A
O1513      C1515   1.266       .  A
O1514     Ni1525   1.928       .  S
C1515      O1521   1.280       .  A
H1517      O1518   0.966       .  S
O1518     Ni1526   1.930       .  S
O1518     Ni1520   1.887       .  S
O1518     Ni1525   1.876       .  S
O1519     Ni1520   1.976       .  S
Ni1520     O1524   1.919       .  S
Ni1520     O1522   1.937       .  S
O1521     Ni1526   1.966       .  S
C1523      C1558   1.467       .  S
C1523      O1524   1.276       .  A
O1528     Ni1534   1.918       .  S
O1528      C1549   1.266       .  A
O1529     Ni1552   1.900       .  S
O1529      C1538   1.263       .  A
O1530     Ni1534   1.881       .  S
O1530     Ni1552   1.898       .  S
O1530     Ni1546   1.879       .  S
O1530      H1553   0.966       .  S
C1531      C1554   1.444       .  S
C1531      O1548   1.269       .  A
C1531      O1540   1.267       .  A
O1532     Ni1551   1.892       .  S
O1532      C1538   1.261       .  A
O1533     Ni1551   1.925       .  S
O1533      C1535   1.274       .  A
Ni1534     O1537   1.910       .  S
Ni1534     O1539   1.902       .  S
C1535      O1545   1.278       .  A
O1536     Ni1552   1.917       .  S
O1536      C1542   1.278       .  A
O1537      C1542   1.283       .  A
C1538      C1574   1.445       .  S
O1539      C1541   1.260       .  A
O1540     Ni1551   1.909       .  S
C1541      O1547   1.261       .  A
H1543      O1544   0.966       .  S
O1544     Ni1552   1.925       .  S
O1544     Ni1546   1.908       .  S
O1544     Ni1551   1.904       .  S
O1545     Ni1546   1.939       .  S
Ni1546     O1550   1.926       .  S
Ni1546     O1548   1.899       .  S
O1547     Ni1552   1.917       .  S
C1549      O1550   1.274       .  A
C1554      N1555   1.343       .  A
C1554      N1559   1.361       .  A
N1555      C1556   1.341       .  A
C1556      N1557   1.358       .  A
N1557      C1558   1.354       .  A
C1558      N1559   1.364       .  A
C1560      N1877   1.360       .  A
C1560      N1565   1.361       .  A
N1561      C1876   1.361       .  A
N1561      C1562   1.360   1_556  A
C1562      N1563   1.352   1_554  A
N1563      C2512   1.358       .  A
C1564      N2511   1.358       .  A
C1564      N2197   1.362       .  A
N1565      C2196   1.362       .  A
C1566      N1567   1.374       .  A
C1566      N1571   1.330       .  A
N1567      C1568   1.383       .  A
C1568      N1569   1.378       .  A
N1569      C1570   1.363       .  A
C1570      C2078   1.466       .  S
C1570      N1571   1.335       .  A
C1572      C1573   1.406       .  A
C1572      C1577   1.383       .  A
C1573      C1574   1.406       .  A
C1573      H1578   1.084       .  S
C1574      C1575   1.381       .  A
C1575      C1576   1.387       .  A
C1575      H1579   1.086       .  S
C1576      C1577   1.381       .  A
C1577      H1580   1.086       .  S
C1581      C1626   1.451       .  S
C1581      C2214   1.401       .  A
C1582      C2213   1.401   1_545  A
C1582      C1583   1.394       .  A
C1582      H1587   1.085       .  S
C1583      C1717   1.462       .  S
C1584      C2217   1.402   1_545  A
C1584      H1588   1.085       .  S
C1585      C1679   1.456       .  S
C1585      C2216   1.402       .  A
C1585      C1586   1.400       .  A
C1586      H1589   1.085       .  S
C1590      C1690   1.457       .  S
C1590      C1591   1.410       .  A
C1590      C1595   1.383       .  A
C1591      C1592   1.408       .  A
C1591      H1596   1.084       .  S
C1592      C1728   1.463       .  S
C1592      C1593   1.388       .  A
C1593      C1594   1.398       .  A
C1593      H1597   1.085       .  S
C1594      C1615   1.436       .  S
C1594      C1595   1.391       .  A
C1595      H1598   1.085       .  S
C1599      C1857   1.456   1_554  S
N1600      C1601   1.353       .  A
C1601      C1653   1.464       .  S
C1601      N1602   1.360       .  A
N1602      C1603   1.358       .  A
C1603      C1683   1.462       .  S
C1603      N1604   1.356       .  A
O1605     Ni1611   1.930       .  S
O1605      C1626   1.275       .  A
O1606     Ni1629   1.854       .  S
O1606      C1615   1.265       .  A
O1607     Ni1611   1.880       .  S
O1607     Ni1629   1.915       .  S
O1607     Ni1623   1.929       .  S
O1607      H1630   0.966       .  S
C1608      C1814   1.452       .  S
C1608      O1625   1.291       .  A
C1608      O1617   1.278       .  A
O1609     Ni1628   1.923       .  S
O1609      C1615   1.279       .  A
O1610     Ni1628   1.940       .  S
O1610      C1612   1.272       .  A
Ni1611     O1614   1.931       .  S
Ni1611     O1616   1.913       .  S
C1612      C2265   1.502       .  S
C1612      O1622   1.268       .  A
O1613     Ni1629   1.916       .  S
O1613      C1619   1.256       .  A
O1614      C1619   1.280       .  A
O1616      C1618   1.272       .  A
O1617     Ni1628   1.913       .  S
C1618      O1624   1.281       .  A
C1619      C1882   1.478       .  S
H1620      O1621   0.967       .  S
O1621     Ni1629   1.855       .  S
O1621     Ni1623   1.858       .  S
O1621     Ni1628   1.873       .  S
O1622     Ni1623   1.953       .  S
Ni1623     O1627   1.893       .  S
Ni1623     O1625   1.918       .  S
O1624     Ni1629   1.966       .  S
C1626      O1627   1.269       .  A
C1631      N1632   1.375       .  A
C1631      N1636   1.344       .  A
N1632      C1633   1.391       .  A
C1633      C2244   1.502   1_545  S
C1633      N1634   1.375       .  A
N1634      C1635   1.362       .  A
C1635      C1646   1.486       .  S
C1635      N1636   1.351       .  A
C1637      N1638   1.364       .  A
C1637      N1642   1.375       .  A
N1638      C1639   1.353       .  A
C1639      C1851   1.487       .  S
C1639      N1640   1.358       .  A
N1640      C1641   1.363       .  A
C1641      C1657   1.491       .  S
C1641      N1642   1.376       .  A
O1643     Ni1649   1.908       .  S
O1643      C1664   1.268       .  A
O1644     Ni1667   1.913       .  S
O1644      C1653   1.273       .  A
O1645     Ni1649   1.882       .  S
O1645     Ni1667   1.893       .  S
O1645     Ni1661   1.949       .  S
O1645      H1668   0.966       .  S
C1646      O1663   1.296       .  A
C1646      O1655   1.279       .  A
O1647     Ni1666   1.922       .  S
O1647      C1653   1.269       .  A
O1648     Ni1666   1.901       .  S
O1648      C1650   1.268       .  A
Ni1649     O1652   1.938       .  S
Ni1649     O1654   1.926       .  S
C1650      C1703   1.505       .  S
C1650      O1660   1.285       .  A
O1651     Ni1667   1.956       .  S
O1651      C1657   1.282       .  A
O1652      C1657   1.281       .  A
O1654      C1656   1.271       .  A
O1655     Ni1666   1.892       .  S
C1656      C1733   1.518       .  S
C1656      O1662   1.285       .  A
H1658      O1659   0.967       .  S
O1659     Ni1667   1.904       .  S
O1659     Ni1661   1.906       .  S
O1659     Ni1666   1.870       .  S
O1660     Ni1661   1.983       .  S
Ni1661     O1665   1.952       .  S
Ni1661     O1663   1.975       .  S
O1662     Ni1667   1.990       .  S
C1664      C1699   1.470       .  S
C1664      O1665   1.285       .  A
O1669     Ni1675   1.895       .  S
O1669      C1690   1.263       .  A
O1670     Ni1693   1.911       .  S
O1670      C1679   1.272       .  A
O1671     Ni1675   1.905       .  S
O1671     Ni1693   1.912       .  S
O1671     Ni1687   1.945       .  S
O1671      H1694   0.966       .  S
C1672      C2329   1.469       .  S
C1672      O1689   1.292       .  A
C1672      O2313   1.279       .  A
O1673     Ni1692   1.914       .  S
O1673      C1679   1.268       .  A
O1674     Ni1692   1.895       .  S
O1674      C1676   1.262       .  A
Ni1675     O1678   1.915       .  S
Ni1675     O1680   1.915       .  S
C1676      C1872   1.437       .  S
C1676      O1686   1.255       .  A
O1677     Ni1693   1.917       .  S
O1677      C1683   1.267       .  A
O1678      C1683   1.267       .  A
O1680      C1682   1.273       .  A
O1681     Ni2324   1.910       .  S
O1681      C2304   1.279       .  A
C1682      C1878   1.472       .  S
C1682      O1688   1.278       .  A
H1684      O1685   0.967       .  S
O1685     Ni1693   1.886       .  S
O1685     Ni1687   1.889       .  S
O1685     Ni1692   1.878       .  S
O1686     Ni1687   1.896       .  S
Ni1687     O1691   1.916       .  S
Ni1687     O1689   1.945       .  S
O1688     Ni1693   1.926       .  S
C1690      O1691   1.273       .  A
Ni1692     O2313   1.910       .  S
C1695      C1793   1.488       .  S
C1695      N1696   1.349       .  A
C1695      N1700   1.360       .  A
N1696      C1697   1.368       .  A
C1697      C2304   1.469   1_545  S
C1697      N1698   1.364       .  A
N1698      C1699   1.363       .  A
C1699      N1700   1.363       .  A
C1701      C1761   1.488       .  S
C1701      N1702   1.377       .  A
C1701      N1706   1.361       .  A
N1702      C1703   1.373       .  A
C1703      N1704   1.369       .  A
N1704      C1705   1.359       .  A
C1705      C1721   1.484       .  S
C1705      N1706   1.353       .  A
O1707     Ni1713   1.898       .  S
O1707      C1728   1.264       .  A
O1708     Ni1731   1.920       .  S
O1708      C1717   1.276       .  A
O1709     Ni1713   1.893       .  S
O1709     Ni1731   1.909       .  S
O1709     Ni1725   1.950       .  S
O1709      H1732   0.966       .  S
C1710      O1727   1.290       .  A
C1710      O1719   1.279       .  A
O1711     Ni1730   1.908       .  S
O1711      C1717   1.266       .  A
O1712     Ni1730   1.886       .  S
O1712      C1714   1.265       .  A
Ni1713     O1716   1.914       .  S
Ni1713     O1718   1.916       .  S
C1714      C1774   1.457       .  S
C1714      O1724   1.265       .  A
O1715     Ni1731   1.969       .  S
O1715      C1721   1.287       .  A
O1716      C1721   1.271       .  A
O1718      C1720   1.272       .  A
O1719     Ni1730   1.900       .  S
C1720      C1780   1.479       .  S
C1720      O1726   1.269       .  A
H1722      O1723   0.967       .  S
O1723     Ni1731   1.910       .  S
O1723     Ni1725   1.902       .  S
O1723     Ni1730   1.867       .  S
O1724     Ni1725   1.933       .  S
Ni1725     O1729   1.927       .  S
Ni1725     O1727   1.958       .  S
O1726     Ni1731   1.940       .  S
C1728      O1729   1.274       .  A
C1733      N1734   1.375       .  A
C1733      N1738   1.387       .  A
N1734      C1735   1.362       .  A
C1735      N1736   1.351       .  A
C1737      C1799   1.508   1_554  S
C1739      C1807   1.479       .  S
C1739      C2372   1.410   1_545  A
C1740      C2371   1.410       .  A
C1740      C1741   1.405       .  A
C1740      H1745   1.084       .  S
C1741      C1865   1.467       .  S
C1742      C2375   1.399       .  A
C1742      H1746   1.086       .  S
C1743      C1769   1.472       .  S
C1743      C2374   1.399   1_545  A
C1743      C1744   1.408       .  A
C1744      H1747   1.084       .  S
O1748     Ni1754   1.931       .  S
O1748      C1769   1.277       .  A
O1749     Ni1772   1.884       .  S
O1749      C1758   1.264       .  A
O1750     Ni1754   1.876       .  S
O1750     Ni1772   1.904       .  S
O1750     Ni1766   1.896       .  S
O1750      H1773   0.967       .  S
C1751      C1776   1.455       .  S
C1751      O1768   1.279       .  A
C1751      O1760   1.265       .  A
O1752     Ni1771   1.899       .  S
O1752      C1758   1.263       .  A
O1753     Ni1771   1.932       .  S
O1753      C1755   1.278       .  A
Ni1754     O1757   1.926       .  S
Ni1754     O1759   1.905       .  S
C1755      O1765   1.278       .  A
O1756     Ni1772   1.931       .  S
O1756      C1762   1.271       .  A
O1757      C1762   1.275       .  A
C1758      C1888   1.440       .  S
O1759      C1761   1.268       .  A
O1760     Ni1771   1.898       .  S
C1761      O1767   1.279       .  A
C1762      C2518   1.466   1_545  S
H1763      O1764   0.966       .  S
O1764     Ni1772   1.910       .  S
O1764     Ni1766   1.910       .  S
O1764     Ni1771   1.897       .  S
O1765     Ni1766   1.975       .  S
Ni1766     O1770   1.915       .  S
Ni1766     O1768   1.938       .  S
O1767     Ni1772   1.984       .  S
C1769      O1770   1.279       .  A
N1775      C1776   1.338       .  A
C1776      N1777   1.356       .  A
N1777      C1778   1.366       .  A
C1778      C1831   1.487       .  S
C1778      N1779   1.369       .  A
C1780      N1781   1.366       .  A
C1780      N1785   1.344       .  A
N1781      C1782   1.376       .  A
C1782      N1783   1.364       .  A
N1783      C1784   1.351       .  A
C1784      C1832   1.458       .  S
C1784      N1785   1.346       .  A
O1786     Ni1792   1.964       .  S
O1786      C1807   1.289       .  A
O1787     Ni1810   1.860       .  S
O1787      C1796   1.256       .  A
O1788     Ni1792   1.868       .  S
O1788     Ni1810   1.867       .  S
O1788     Ni1804   1.877       .  S
O1788      H1811   0.967       .  S
C1789      O1806   1.272       .  A
C1789      O1798   1.274       .  A
O1790     Ni1809   1.894       .  S
O1790      C1796   1.263       .  A
O1791     Ni1809   1.902       .  S
O1791      C1793   1.268       .  A
Ni1792     O1795   1.940       .  S
Ni1792     O1797   1.955       .  S
C1793      O1803   1.285       .  A
O1794     Ni1810   1.911       .  S
O1794      C1800   1.282       .  A
O1795      C1800   1.284       .  A
C1796      C1892   1.415       .  S
O1797      C1799   1.284       .  A
O1798     Ni1809   1.917       .  S
C1799      O1805   1.261       .  A
C1800      C1880   1.464   1_545  S
H1801      O1802   0.965       .  S
O1802     Ni1810   1.939       .  S
O1802     Ni1804   1.900       .  S
O1802     Ni1809   1.885       .  S
O1803     Ni1804   1.966       .  S
Ni1804     O1808   1.898       .  S
Ni1804     O1806   1.933       .  S
O1805     Ni1810   1.947       .  S
C1807      O1808   1.278       .  A
C1812      N1813   1.352       .  A
C1812      N1817   1.368       .  A
N1815      C1816   1.357       .  A
C1816      C1828   1.460       .  S
C1816      N1817   1.368       .  A
O1818     Ni1824   1.922       .  S
O1818      C1839   1.268       .  A
O1819     Ni1842   1.940       .  S
O1819      C1828   1.278       .  A
O1820     Ni1824   1.869       .  S
O1820     Ni1842   1.902       .  S
O1820     Ni1836   1.890       .  S
O1820      H1843   0.966       .  S
C1821      C1876   1.468       .  S
C1821      O1838   1.280       .  A
C1821      O1830   1.281       .  A
O1822     Ni1841   1.910       .  S
O1822      C1828   1.266       .  A
O1823     Ni1841   1.915       .  S
O1823      C1825   1.265       .  A
Ni1824     O1827   1.899       .  S
Ni1824     O1829   1.895       .  S
C1825      C1884   1.498       .  S
C1825      O1835   1.281       .  A
O1826     Ni1842   1.933       .  S
O1826      C1832   1.286       .  A
O1827      C1832   1.279       .  A
O1829      C1831   1.266       .  A
O1830     Ni1841   1.928       .  S
C1831      O1837   1.280       .  A
H1833      O1834   0.966       .  S
O1834     Ni1842   1.930       .  S
O1834     Ni1836   1.887       .  S
O1834     Ni1841   1.876       .  S
O1835     Ni1836   1.976       .  S
Ni1836     O1840   1.919       .  S
Ni1836     O1838   1.937       .  S
O1837     Ni1842   1.967       .  S
C1839      C1874   1.467       .  S
C1839      O1840   1.276       .  A
O1844     Ni1850   1.918       .  S
O1844      C1865   1.267       .  A
O1845     Ni1868   1.900       .  S
O1845      C1854   1.263       .  A
O1846     Ni1850   1.881       .  S
O1846     Ni1868   1.898       .  S
O1846     Ni1862   1.879       .  S
O1846      H1869   0.966       .  S
C1847      C1870   1.444       .  S
C1847      O1864   1.269       .  A
C1847      O1856   1.267       .  A
O1848     Ni1867   1.892       .  S
O1848      C1854   1.261       .  A
O1849     Ni1867   1.925       .  S
O1849      C1851   1.274       .  A
Ni1850     O1853   1.910       .  S
Ni1850     O1855   1.902       .  S
C1851      O1861   1.278       .  A
O1852     Ni1868   1.917       .  S
O1852      C1858   1.278       .  A
O1853      C1858   1.283       .  A
C1854      C1890   1.445       .  S
O1855      C1857   1.260       .  A
O1856     Ni1867   1.909       .  S
C1857      O1863   1.261       .  A
H1859      O1860   0.966       .  S
O1860     Ni1868   1.925       .  S
O1860     Ni1862   1.908       .  S
O1860     Ni1867   1.905       .  S
O1861     Ni1862   1.939       .  S
Ni1862     O1866   1.926       .  S
Ni1862     O1864   1.899       .  S
O1863     Ni1868   1.916       .  S
C1865      O1866   1.274       .  A
C1870      N1871   1.343       .  A
C1870      N1875   1.361       .  A
N1871      C1872   1.341       .  A
C1872      N1873   1.358       .  A
N1873      C1874   1.354       .  A
C1874      N1875   1.364       .  A
C1876      N1881   1.361       .  A
N1877      C1878   1.360       .  A
C1878      N1879   1.352       .  A
N1879      C2196   1.358       .  A
C1880      N2195   1.358       .  A
C1880      N2513   1.362       .  A
N1881      C2512   1.362       .  A
C1882      N1883   1.374       .  A
C1882      N1887   1.330       .  A
N1883      C1884   1.383       .  A
C1884      N1885   1.378       .  A
N1885      C1886   1.363       .  A
C1886      C2394   1.466       .  S
C1886      N1887   1.335       .  A
C1888      C1889   1.406       .  A
C1888      C1893   1.382       .  A
C1889      C1890   1.406       .  A
C1889      H1894   1.084       .  S
C1890      C1891   1.381       .  A
C1891      C1892   1.387       .  A
C1891      H1895   1.086       .  S
C1892      C1893   1.381       .  A
C1893      H1896   1.086       .  S
C1897      C1942   1.451       .  S
C1898      C1899   1.394       .  A
C1898      H1903   1.085       .  S
C1899      C2033   1.462       .  S
C1900      H1904   1.085       .  S
C1901      C1995   1.456       .  S
C1901      C1902   1.400       .  A
C1902      H1905   1.085       .  S
C1906      C2006   1.457       .  S
C1906      C1907   1.410       .  A
C1906      C1911   1.383       .  A
C1907      C1908   1.408       .  A
C1907      H1912   1.084       .  S
C1908      C2044   1.463       .  S
C1908      C1909   1.388       .  A
C1909      C1910   1.398       .  A
C1909      H1913   1.085       .  S
C1910      C1931   1.436       .  S
C1910      C1911   1.391       .  A
C1911      H1914   1.085       .  S
C1915      C2173   1.456       .  S
C1915      N2232   1.358       .  A
C1915      N2236   1.356       .  A
N1916      C2231   1.358       .  A
N1916      C1917   1.353       .  A
C1917      C1969   1.464       .  S
C1917      N1918   1.360       .  A
N1918      C1919   1.358       .  A
C1919      C1999   1.462       .  S
C1919      N1920   1.356       .  A
N1920      C2231   1.356       .  A
O1921     Ni1927   1.930       .  S
O1921      C1942   1.275       .  A
O1922     Ni1945   1.855       .  S
O1922      C1931   1.265       .  A
O1923     Ni1927   1.880       .  S
O1923     Ni1945   1.915       .  S
O1923     Ni1939   1.929       .  S
O1923      H1946   0.966       .  S
C1924      C2130   1.452   1_554  S
C1924      O1941   1.291       .  A
C1924      O1933   1.278       .  A
O1925     Ni1944   1.923       .  S
O1925      C1931   1.279       .  A
O1926     Ni1944   1.940       .  S
O1926      C1928   1.272       .  A
Ni1927     O1930   1.930       .  S
Ni1927     O1932   1.913       .  S
C1928      O1938   1.268       .  A
O1929     Ni1945   1.916       .  S
O1929      C1935   1.256       .  A
O1930      C1935   1.280       .  A
O1932      C1934   1.272       .  A
O1933     Ni1944   1.913       .  S
C1934      O1940   1.281       .  A
C1935      C2198   1.478       .  S
H1936      O1937   0.967       .  S
O1937     Ni1945   1.855       .  S
O1937     Ni1939   1.858       .  S
O1937     Ni1944   1.873       .  S
O1938     Ni1939   1.953       .  S
Ni1939     O1943   1.893       .  S
Ni1939     O1941   1.918       .  S
O1940     Ni1945   1.966       .  S
C1942      O1943   1.269       .  A
C1947      C2387   1.515   1_554  S
C1947      N1948   1.375       .  A
C1947      N1952   1.344       .  A
N1948      C1949   1.391       .  A
C1949      N1950   1.376       .  A
N1950      C1951   1.362       .  A
C1951      C1962   1.486       .  S
C1951      N1952   1.351       .  A
C1953      N1954   1.364       .  A
C1953      N1958   1.375       .  A
N1954      C1955   1.353       .  A
C1955      C2167   1.487       .  S
C1955      N1956   1.358       .  A
N1956      C1957   1.363       .  A
C1957      C1973   1.491       .  S
C1957      N1958   1.376       .  A
O1959     Ni1965   1.908       .  S
O1959      C1980   1.268       .  A
O1960     Ni1983   1.912       .  S
O1960      C1969   1.273       .  A
O1961     Ni1965   1.882       .  S
O1961     Ni1983   1.893       .  S
O1961     Ni1977   1.949       .  S
O1961      H1984   0.966       .  S
C1962      O1979   1.296       .  A
C1962      O1971   1.279       .  A
O1963     Ni1982   1.922       .  S
O1963      C1969   1.269       .  A
O1964     Ni1982   1.901       .  S
O1964      C1966   1.268       .  A
Ni1965     O1968   1.938       .  S
Ni1965     O1970   1.926       .  S
C1966      C2019   1.505       .  S
C1966      O1976   1.285       .  A
O1967     Ni1983   1.956       .  S
O1967      C1973   1.282       .  A
O1968      C1973   1.281       .  A
O1970      C1972   1.271       .  A
O1971     Ni1982   1.893       .  S
C1972      C2049   1.518       .  S
C1972      O1978   1.285       .  A
H1974      O1975   0.967       .  S
O1975     Ni1983   1.904       .  S
O1975     Ni1977   1.906       .  S
O1975     Ni1982   1.870       .  S
O1976     Ni1977   1.983       .  S
Ni1977     O1981   1.952       .  S
Ni1977     O1979   1.975       .  S
O1978     Ni1983   1.990       .  S
C1980      C2015   1.470       .  S
C1980      O1981   1.285       .  A
O1985     Ni1991   1.895       .  S
O1985      C2006   1.263       .  A
O1986     Ni2009   1.911       .  S
O1986      C1995   1.272       .  A
O1987     Ni1991   1.905       .  S
O1987     Ni2009   1.912       .  S
O1987     Ni2003   1.945       .  S
O1987      H2010   0.966       .  S
C1988      O2005   1.292       .  A
O1989     Ni2008   1.914       .  S
O1989      C1995   1.268       .  A
O1990     Ni2008   1.895       .  S
O1990      C1992   1.262       .  A
Ni1991     O1994   1.915       .  S
Ni1991     O1996   1.915       .  S
C1992      C2188   1.437       .  S
C1992      O2002   1.255       .  A
O1993     Ni2009   1.917       .  S
O1993      C1999   1.267       .  A
O1994      C1999   1.267       .  A
O1996      C1998   1.272       .  A
C1998      C2194   1.472       .  S
C1998      O2004   1.278       .  A
H2000      O2001   0.967       .  S
O2001     Ni2009   1.885       .  S
O2001     Ni2003   1.889       .  S
O2001     Ni2008   1.878       .  S
O2002     Ni2003   1.896       .  S
Ni2003     O2007   1.916       .  S
Ni2003     O2005   1.945       .  S
O2004     Ni2009   1.926       .  S
C2006      O2007   1.273       .  A
C2011      C2109   1.488       .  S
C2011      N2012   1.349       .  A
C2011      N2016   1.360       .  A
N2012      C2013   1.368       .  A
C2013      N2014   1.364       .  A
N2014      C2015   1.363       .  A
C2015      N2016   1.363       .  A
C2017      C2077   1.488       .  S
C2017      N2018   1.377       .  A
C2017      N2022   1.361       .  A
N2018      C2019   1.373       .  A
C2019      N2020   1.369       .  A
N2020      C2021   1.359       .  A
C2021      C2037   1.483       .  S
C2021      N2022   1.353       .  A
O2023     Ni2029   1.898       .  S
O2023      C2044   1.264       .  A
O2024     Ni2047   1.920       .  S
O2024      C2033   1.276       .  A
O2025     Ni2029   1.893       .  S
O2025     Ni2047   1.909       .  S
O2025     Ni2041   1.950       .  S
O2025      H2048   0.966       .  S
C2026      O2043   1.290       .  A
C2026      O2035   1.279       .  A
O2027     Ni2046   1.908       .  S
O2027      C2033   1.266       .  A
O2028     Ni2046   1.886       .  S
O2028      C2030   1.265       .  A
Ni2029     O2032   1.914       .  S
Ni2029     O2034   1.916       .  S
C2030      C2090   1.457   1_554  S
C2030      O2040   1.265       .  A
O2031     Ni2047   1.969       .  S
O2031      C2037   1.287       .  A
O2032      C2037   1.271       .  A
O2034      C2036   1.272       .  A
O2035     Ni2046   1.900       .  S
C2036      C2096   1.479       .  S
C2036      O2042   1.269       .  A
H2038      O2039   0.967       .  S
O2039     Ni2047   1.910       .  S
O2039     Ni2041   1.902       .  S
O2039     Ni2046   1.867       .  S
O2040     Ni2041   1.933       .  S
Ni2041     O2045   1.927       .  S
Ni2041     O2043   1.957       .  S
O2042     Ni2047   1.940       .  S
C2044      O2045   1.274       .  A
C2049      N2050   1.375       .  A
C2049      N2054   1.387       .  A
N2050      C2051   1.362       .  A
C2051      N2052   1.351       .  A
N2052      C2369   1.341       .  A
C2053      C2115   1.508       .  S
C2053      N2368   1.341       .  A
C2053      N2370   1.384       .  A
N2054      C2369   1.384       .  A
C2055      C2123   1.479       .  S
C2056      C2057   1.405       .  A
C2056      H2061   1.084       .  S
C2057      C2181   1.467       .  S
C2058      H2062   1.086       .  S
C2059      C2085   1.472       .  S
C2059      C2060   1.408       .  A
C2060      H2063   1.084       .  S
O2064     Ni2070   1.931       .  S
O2064      C2085   1.277       .  A
O2065     Ni2088   1.884       .  S
O2065      C2074   1.264       .  A
O2066     Ni2070   1.876       .  S
O2066     Ni2088   1.904       .  S
O2066     Ni2082   1.896       .  S
O2066      H2089   0.967       .  S
C2067      C2092   1.455       .  S
C2067      O2084   1.279       .  A
C2067      O2076   1.265       .  A
O2068     Ni2087   1.899       .  S
O2068      C2074   1.263       .  A
O2069     Ni2087   1.932       .  S
O2069      C2071   1.278       .  A
Ni2070     O2073   1.926       .  S
Ni2070     O2075   1.905       .  S
C2071      C2263   1.515       .  S
C2071      O2081   1.278       .  A
O2072     Ni2088   1.931       .  S
O2072      C2078   1.271       .  A
O2073      C2078   1.275       .  A
C2074      C2204   1.440       .  S
O2075      C2077   1.268       .  A
O2076     Ni2087   1.898       .  S
C2077      O2083   1.279       .  A
H2079      O2080   0.966       .  S
O2080     Ni2088   1.910       .  S
O2080     Ni2082   1.910       .  S
O2080     Ni2087   1.897       .  S
O2081     Ni2082   1.975       .  S
Ni2082     O2086   1.915       .  S
Ni2082     O2084   1.938       .  S
O2083     Ni2088   1.984       .  S
C2085      O2086   1.279       .  A
C2090      N2407   1.349       .  A
C2090      N2411   1.371       .  A
N2091      C2406   1.349       .  A
N2091      C2092   1.338       .  A
C2092      N2093   1.356       .  A
N2093      C2094   1.366       .  A
C2094      C2147   1.487       .  S
C2094      N2095   1.369       .  A
N2095      C2406   1.371       .  A
C2096      N2097   1.366       .  A
C2096      N2101   1.344       .  A
N2097      C2098   1.376       .  A
C2098      N2099   1.364       .  A
N2099      C2100   1.351       .  A
C2100      C2148   1.458       .  S
C2100      N2101   1.346       .  A
O2102     Ni2108   1.964       .  S
O2102      C2123   1.289       .  A
O2103     Ni2126   1.860       .  S
O2103      C2112   1.256       .  A
O2104     Ni2108   1.868       .  S
O2104     Ni2126   1.867       .  S
O2104     Ni2120   1.877       .  S
O2104      H2127   0.967       .  S
C2105      O2122   1.272       .  A
C2105      O2114   1.274       .  A
O2106     Ni2125   1.894       .  S
O2106      C2112   1.263       .  A
O2107     Ni2125   1.902       .  S
O2107      C2109   1.268       .  A
Ni2108     O2111   1.940       .  S
Ni2108     O2113   1.955       .  S
C2109      O2119   1.285       .  A
O2110     Ni2126   1.911       .  S
O2110      C2116   1.282       .  A
O2111      C2116   1.284       .  A
C2112      C2208   1.416       .  S
O2113      C2115   1.284       .  A
O2114     Ni2125   1.917       .  S
C2115      O2121   1.261       .  A
C2116      C2196   1.464       .  S
H2117      O2118   0.965       .  S
O2118     Ni2126   1.939       .  S
O2118     Ni2120   1.900       .  S
O2118     Ni2125   1.885       .  S
O2119     Ni2120   1.966       .  S
Ni2120     O2124   1.898       .  S
Ni2120     O2122   1.933       .  S
O2121     Ni2126   1.947       .  S
C2123      O2124   1.278       .  A
C2128      N2129   1.352       .  A
C2128      N2133   1.368       .  A
N2129      C2446   1.333       .  A
C2130      N2445   1.333       .  A
C2130      N2447   1.350       .  A
N2131      C2446   1.350       .  A
N2131      C2132   1.357       .  A
C2132      C2144   1.460       .  S
C2132      N2133   1.368       .  A
O2134     Ni2140   1.922       .  S
O2134      C2155   1.268       .  A
O2135     Ni2158   1.941       .  S
O2135      C2144   1.278       .  A
O2136     Ni2140   1.869       .  S
O2136     Ni2158   1.902       .  S
O2136     Ni2152   1.890       .  S
O2136      H2159   0.966       .  S
C2137      C2192   1.468       .  S
C2137      O2154   1.280       .  A
C2137      O2146   1.281       .  A
O2138     Ni2157   1.910       .  S
O2138      C2144   1.266       .  A
O2139     Ni2157   1.915       .  S
O2139      C2141   1.265       .  A
Ni2140     O2143   1.899       .  S
Ni2140     O2145   1.895       .  S
C2141      C2200   1.498       .  S
C2141      O2151   1.281       .  A
O2142     Ni2158   1.933       .  S
O2142      C2148   1.286       .  A
O2143      C2148   1.279       .  A
O2145      C2147   1.266       .  A
O2146     Ni2157   1.928       .  S
C2147      O2153   1.280       .  A
H2149      O2150   0.966       .  S
O2150     Ni2158   1.930       .  S
O2150     Ni2152   1.887       .  S
O2150     Ni2157   1.876       .  S
O2151     Ni2152   1.976       .  S
Ni2152     O2156   1.919       .  S
Ni2152     O2154   1.937       .  S
O2153     Ni2158   1.966       .  S
C2155      C2190   1.467       .  S
C2155      O2156   1.276       .  A
O2160     Ni2166   1.918       .  S
O2160      C2181   1.266       .  A
O2161     Ni2184   1.900       .  S
O2161      C2170   1.263       .  A
O2162     Ni2166   1.881       .  S
O2162     Ni2184   1.898       .  S
O2162     Ni2178   1.879       .  S
O2162      H2185   0.966       .  S
C2163      C2186   1.444       .  S
C2163      O2180   1.269       .  A
C2163      O2172   1.267       .  A
O2164     Ni2183   1.892       .  S
O2164      C2170   1.261       .  A
O2165     Ni2183   1.925       .  S
O2165      C2167   1.274       .  A
Ni2166     O2169   1.910       .  S
Ni2166     O2171   1.902       .  S
C2167      O2177   1.278       .  A
O2168     Ni2184   1.917       .  S
O2168      C2174   1.278       .  A
O2169      C2174   1.283       .  A
C2170      C2206   1.445       .  S
O2171      C2173   1.260       .  A
O2172     Ni2183   1.909       .  S
C2173      O2179   1.261       .  A
H2175      O2176   0.966       .  S
O2176     Ni2184   1.925       .  S
O2176     Ni2178   1.908       .  S
O2176     Ni2183   1.904       .  S
O2177     Ni2178   1.939       .  S
Ni2178     O2182   1.926       .  S
Ni2178     O2180   1.899       .  S
O2179     Ni2184   1.917       .  S
C2181      O2182   1.274       .  A
C2186      N2187   1.343       .  A
C2186      N2191   1.361       .  A
N2187      C2188   1.341       .  A
C2188      N2189   1.358       .  A
N2189      C2190   1.354       .  A
C2190      N2191   1.364       .  A
C2192      N2509   1.360       .  A
C2192      N2197   1.361       .  A
N2193      C2508   1.361       .  A
N2193      C2194   1.360   1_556  A
C2194      N2195   1.352   1_554  A
C2198      N2199   1.374       .  A
C2198      N2203   1.330       .  A
N2199      C2200   1.383       .  A
C2200      N2201   1.378       .  A
N2201      C2202   1.363       .  A
C2202      N2203   1.335       .  A
C2204      C2205   1.406       .  A
C2204      C2209   1.383       .  A
C2205      C2206   1.406       .  A
C2205      H2210   1.084       .  S
C2206      C2207   1.381       .  A
C2207      C2208   1.387       .  A
C2207      H2211   1.086       .  S
C2208      C2209   1.381       .  A
C2209      H2212   1.086       .  S
C2213      C2258   1.451       .  S
C2214      C2215   1.394       .  A
C2214      H2219   1.085       .  S
C2215      C2349   1.462       .  S
C2216      H2220   1.085       .  S
C2217      C2311   1.456       .  S
C2217      C2218   1.400       .  A
C2218      H2221   1.085       .  S
C2222      C2322   1.457       .  S
C2222      C2223   1.410       .  A
C2222      C2227   1.383       .  A
C2223      C2224   1.408       .  A
C2223      H2228   1.084       .  S
C2224      C2360   1.463       .  S
C2224      C2225   1.388       .  A
C2225      C2226   1.398       .  A
C2225      H2229   1.085       .  S
C2226      C2247   1.436       .  S
C2226      C2227   1.391       .  A
C2227      H2230   1.085       .  S
C2231      C2489   1.456   1_554  S
N2232      C2233   1.353       .  A
C2233      C2285   1.464       .  S
C2233      N2234   1.360       .  A
N2234      C2235   1.358       .  A
C2235      C2315   1.462       .  S
C2235      N2236   1.356       .  A
O2237     Ni2243   1.930       .  S
O2237      C2258   1.275       .  A
O2238     Ni2261   1.854       .  S
O2238      C2247   1.265       .  A
O2239     Ni2243   1.880       .  S
O2239     Ni2261   1.915       .  S
O2239     Ni2255   1.929       .  S
O2239      H2262   0.966       .  S
C2240      C2446   1.452       .  S
C2240      O2257   1.291       .  A
C2240      O2249   1.278       .  A
O2241     Ni2260   1.923       .  S
O2241      C2247   1.279       .  A
O2242     Ni2260   1.940       .  S
O2242      C2244   1.272       .  A
Ni2243     O2246   1.931       .  S
Ni2243     O2248   1.913       .  S
C2244      O2254   1.268       .  A
O2245     Ni2261   1.916       .  S
O2245      C2251   1.256       .  A
O2246      C2251   1.280       .  A
O2248      C2250   1.272       .  A
O2249     Ni2260   1.913       .  S
C2250      O2256   1.281       .  A
C2251      C2514   1.478       .  S
H2252      O2253   0.967       .  S
O2253     Ni2261   1.855       .  S
O2253     Ni2255   1.858       .  S
O2253     Ni2260   1.873       .  S
O2254     Ni2255   1.953       .  S
Ni2255     O2259   1.893       .  S
Ni2255     O2257   1.918       .  S
O2256     Ni2261   1.966       .  S
C2258      O2259   1.269       .  A
C2263      N2264   1.375       .  A
C2263      N2268   1.344       .  A
N2264      C2265   1.391       .  A
C2265      N2266   1.375       .  A
N2266      C2267   1.362       .  A
C2267      C2278   1.486       .  S
C2267      N2268   1.351       .  A
C2269      N2270   1.364       .  A
C2269      N2274   1.375       .  A
N2270      C2271   1.353       .  A
C2271      C2483   1.487       .  S
C2271      N2272   1.358       .  A
N2272      C2273   1.363       .  A
C2273      C2289   1.491       .  S
C2273      N2274   1.376       .  A
O2275     Ni2281   1.908       .  S
O2275      C2296   1.268       .  A
O2276     Ni2299   1.913       .  S
O2276      C2285   1.273       .  A
O2277     Ni2281   1.882       .  S
O2277     Ni2299   1.893       .  S
O2277     Ni2293   1.949       .  S
O2277      H2300   0.966       .  S
C2278      O2295   1.296       .  A
C2278      O2287   1.279       .  A
O2279     Ni2298   1.922       .  S
O2279      C2285   1.269       .  A
O2280     Ni2298   1.901       .  S
O2280      C2282   1.268       .  A
Ni2281     O2284   1.938       .  S
Ni2281     O2286   1.926       .  S
C2282      C2335   1.505       .  S
C2282      O2292   1.285       .  A
O2283     Ni2299   1.956       .  S
O2283      C2289   1.282       .  A
O2284      C2289   1.281       .  A
O2286      C2288   1.271       .  A
O2287     Ni2298   1.892       .  S
C2288      C2365   1.518       .  S
C2288      O2294   1.285       .  A
H2290      O2291   0.967       .  S
O2291     Ni2299   1.904       .  S
O2291     Ni2293   1.906       .  S
O2291     Ni2298   1.870       .  S
O2292     Ni2293   1.983       .  S
Ni2293     O2297   1.952       .  S
Ni2293     O2295   1.975       .  S
O2294     Ni2299   1.990       .  S
C2296      C2331   1.470       .  S
C2296      O2297   1.285       .  A
O2301     Ni2307   1.895       .  S
O2301      C2322   1.263       .  A
O2302     Ni2325   1.911       .  S
O2302      C2311   1.272       .  A
O2303     Ni2307   1.905       .  S
O2303     Ni2325   1.912       .  S
O2303     Ni2319   1.945       .  S
O2303      H2326   0.966       .  S
C2304      O2321   1.292       .  A
O2305     Ni2324   1.914       .  S
O2305      C2311   1.268       .  A
O2306     Ni2324   1.895       .  S
O2306      C2308   1.262       .  A
Ni2307     O2310   1.915       .  S
Ni2307     O2312   1.915       .  S
C2308      C2504   1.437       .  S
C2308      O2318   1.255       .  A
O2309     Ni2325   1.917       .  S
O2309      C2315   1.267       .  A
O2310      C2315   1.267       .  A
O2312      C2314   1.273       .  A
C2314      C2510   1.472       .  S
C2314      O2320   1.278       .  A
H2316      O2317   0.967       .  S
O2317     Ni2325   1.886       .  S
O2317     Ni2319   1.889       .  S
O2317     Ni2324   1.878       .  S
O2318     Ni2319   1.896       .  S
Ni2319     O2323   1.916       .  S
Ni2319     O2321   1.945       .  S
O2320     Ni2325   1.926       .  S
C2322      O2323   1.273       .  A
C2327      C2425   1.488       .  S
C2327      N2328   1.349       .  A
C2327      N2332   1.360       .  A
N2328      C2329   1.368       .  A
C2329      N2330   1.364       .  A
N2330      C2331   1.363       .  A
C2331      N2332   1.363       .  A
C2333      C2393   1.488       .  S
C2333      N2334   1.377       .  A
C2333      N2338   1.361       .  A
N2334      C2335   1.373       .  A
C2335      N2336   1.369       .  A
N2336      C2337   1.359       .  A
C2337      C2353   1.484       .  S
C2337      N2338   1.353       .  A
O2339     Ni2345   1.898       .  S
O2339      C2360   1.264       .  A
O2340     Ni2363   1.920       .  S
O2340      C2349   1.276       .  A
O2341     Ni2345   1.893       .  S
O2341     Ni2363   1.909       .  S
O2341     Ni2357   1.950       .  S
O2341      H2364   0.966       .  S
C2342      O2359   1.290       .  A
C2342      O2351   1.279       .  A
O2343     Ni2362   1.908       .  S
O2343      C2349   1.266       .  A
O2344     Ni2362   1.886       .  S
O2344      C2346   1.265       .  A
Ni2345     O2348   1.914       .  S
Ni2345     O2350   1.916       .  S
C2346      C2406   1.457       .  S
C2346      O2356   1.265       .  A
O2347     Ni2363   1.969       .  S
O2347      C2353   1.287       .  A
O2348      C2353   1.271       .  A
O2350      C2352   1.272       .  A
O2351     Ni2362   1.900       .  S
C2352      C2412   1.479       .  S
C2352      O2358   1.269       .  A
H2354      O2355   0.967       .  S
O2355     Ni2363   1.910       .  S
O2355     Ni2357   1.902       .  S
O2355     Ni2362   1.867       .  S
O2356     Ni2357   1.933       .  S
Ni2357     O2361   1.927       .  S
Ni2357     O2359   1.958       .  S
O2358     Ni2363   1.940       .  S
C2360      O2361   1.274       .  A
C2365      N2366   1.375       .  A
C2365      N2370   1.387       .  A
N2366      C2367   1.362       .  A
C2367      N2368   1.351       .  A
C2369      C2431   1.508   1_554  S
C2371      C2439   1.479       .  S
C2372      C2373   1.405       .  A
C2372      H2377   1.084       .  S
C2373      C2497   1.467       .  S
C2374      H2378   1.086       .  S
C2375      C2401   1.472       .  S
C2375      C2376   1.408       .  A
C2376      H2379   1.084       .  S
O2380     Ni2386   1.931       .  S
O2380      C2401   1.277       .  A
O2381     Ni2404   1.884       .  S
O2381      C2390   1.264       .  A
O2382     Ni2386   1.876       .  S
O2382     Ni2404   1.904       .  S
O2382     Ni2398   1.896       .  S
O2382      H2405   0.967       .  S
C2383      C2408   1.455       .  S
C2383      O2400   1.279       .  A
C2383      O2392   1.265       .  A
O2384     Ni2403   1.899       .  S
O2384      C2390   1.263       .  A
O2385     Ni2403   1.932       .  S
O2385      C2387   1.278       .  A
Ni2386     O2389   1.926       .  S
Ni2386     O2391   1.905       .  S
C2387      O2397   1.278       .  A
O2388     Ni2404   1.931       .  S
O2388      C2394   1.271       .  A
O2389      C2394   1.275       .  A
C2390      C2520   1.440       .  S
O2391      C2393   1.268       .  A
O2392     Ni2403   1.898       .  S
C2393      O2399   1.279       .  A
H2395      O2396   0.966       .  S
O2396     Ni2404   1.910       .  S
O2396     Ni2398   1.910       .  S
O2396     Ni2403   1.897       .  S
O2397     Ni2398   1.975       .  S
Ni2398     O2402   1.915       .  S
Ni2398     O2400   1.938       .  S
O2399     Ni2404   1.984       .  S
C2401      O2402   1.279       .  A
N2407      C2408   1.338       .  A
C2408      N2409   1.356       .  A
N2409      C2410   1.366       .  A
C2410      C2463   1.487       .  S
C2410      N2411   1.369       .  A
C2412      N2413   1.366       .  A
C2412      N2417   1.344       .  A
N2413      C2414   1.376       .  A
C2414      N2415   1.364       .  A
N2415      C2416   1.351       .  A
C2416      C2464   1.458       .  S
C2416      N2417   1.346       .  A
O2418     Ni2424   1.964       .  S
O2418      C2439   1.289       .  A
O2419     Ni2442   1.860       .  S
O2419      C2428   1.256       .  A
O2420     Ni2424   1.868       .  S
O2420     Ni2442   1.867       .  S
O2420     Ni2436   1.877       .  S
O2420      H2443   0.967       .  S
C2421      O2438   1.272       .  A
C2421      O2430   1.274       .  A
O2422     Ni2441   1.894       .  S
O2422      C2428   1.263       .  A
O2423     Ni2441   1.902       .  S
O2423      C2425   1.268       .  A
Ni2424     O2427   1.940       .  S
Ni2424     O2429   1.955       .  S
C2425      O2435   1.285       .  A
O2426     Ni2442   1.911       .  S
O2426      C2432   1.282       .  A
O2427      C2432   1.284       .  A
C2428      C2524   1.415       .  S
O2429      C2431   1.284       .  A
O2430     Ni2441   1.917       .  S
C2431      O2437   1.261       .  A
C2432      C2512   1.464       .  S
H2433      O2434   0.965       .  S
O2434     Ni2442   1.939       .  S
O2434     Ni2436   1.900       .  S
O2434     Ni2441   1.885       .  S
O2435     Ni2436   1.966       .  S
Ni2436     O2440   1.898       .  S
Ni2436     O2438   1.933       .  S
O2437     Ni2442   1.947       .  S
C2439      O2440   1.278       .  A
C2444      N2445   1.352       .  A
C2444      N2449   1.368       .  A
N2447      C2448   1.357       .  A
C2448      C2460   1.460       .  S
C2448      N2449   1.368       .  A
O2450     Ni2456   1.922       .  S
O2450      C2471   1.268       .  A
O2451     Ni2474   1.940       .  S
O2451      C2460   1.278       .  A
O2452     Ni2456   1.869       .  S
O2452     Ni2474   1.902       .  S
O2452     Ni2468   1.890       .  S
O2452      H2475   0.966       .  S
C2453      C2508   1.468       .  S
C2453      O2470   1.280       .  A
C2453      O2462   1.281       .  A
O2454     Ni2473   1.910       .  S
O2454      C2460   1.266       .  A
O2455     Ni2473   1.915       .  S
O2455      C2457   1.265       .  A
Ni2456     O2459   1.899       .  S
Ni2456     O2461   1.895       .  S
C2457      C2516   1.498       .  S
C2457      O2467   1.281       .  A
O2458     Ni2474   1.933       .  S
O2458      C2464   1.286       .  A
O2459      C2464   1.279       .  A
O2461      C2463   1.266       .  A
O2462     Ni2473   1.928       .  S
C2463      O2469   1.280       .  A
H2465      O2466   0.966       .  S
O2466     Ni2474   1.930       .  S
O2466     Ni2468   1.887       .  S
O2466     Ni2473   1.876       .  S
O2467     Ni2468   1.976       .  S
Ni2468     O2472   1.919       .  S
Ni2468     O2470   1.937       .  S
O2469     Ni2474   1.967       .  S
C2471      C2506   1.467       .  S
C2471      O2472   1.276       .  A
O2476     Ni2482   1.918       .  S
O2476      C2497   1.267       .  A
O2477     Ni2500   1.900       .  S
O2477      C2486   1.263       .  A
O2478     Ni2482   1.881       .  S
O2478     Ni2500   1.898       .  S
O2478     Ni2494   1.879       .  S
O2478      H2501   0.966       .  S
C2479      C2502   1.444       .  S
C2479      O2496   1.269       .  A
C2479      O2488   1.267       .  A
O2480     Ni2499   1.892       .  S
O2480      C2486   1.261       .  A
O2481     Ni2499   1.925       .  S
O2481      C2483   1.274       .  A
Ni2482     O2485   1.910       .  S
Ni2482     O2487   1.902       .  S
C2483      O2493   1.278       .  A
O2484     Ni2500   1.917       .  S
O2484      C2490   1.278       .  A
O2485      C2490   1.283       .  A
C2486      C2522   1.445       .  S
O2487      C2489   1.260       .  A
O2488     Ni2499   1.909       .  S
C2489      O2495   1.261       .  A
H2491      O2492   0.966       .  S
O2492     Ni2500   1.925       .  S
O2492     Ni2494   1.908       .  S
O2492     Ni2499   1.905       .  S
O2493     Ni2494   1.939       .  S
Ni2494     O2498   1.926       .  S
Ni2494     O2496   1.899       .  S
O2495     Ni2500   1.916       .  S
C2497      O2498   1.274       .  A
C2502      N2503   1.343       .  A
C2502      N2507   1.361       .  A
N2503      C2504   1.341       .  A
C2504      N2505   1.358       .  A
N2505      C2506   1.354       .  A
C2506      N2507   1.364       .  A
C2508      N2513   1.361       .  A
N2509      C2510   1.360       .  A
C2510      N2511   1.352       .  A
C2514      N2515   1.374       .  A
C2514      N2519   1.330       .  A
N2515      C2516   1.383       .  A
C2516      N2517   1.378       .  A
N2517      C2518   1.363       .  A
C2518      N2519   1.335       .  A
C2520      C2521   1.406       .  A
C2520      C2525   1.382       .  A
C2521      C2522   1.406       .  A
C2521      H2526   1.084       .  S
C2522      C2523   1.381       .  A
C2523      C2524   1.387       .  A
C2523      H2527   1.086       .  S
C2524      C2525   1.381       .  A
C2525      H2528   1.086       .  S
