geometry optimzed in LAMMPS
_audit_creation_date              2020-11-30 
_audit_creation_method            'lammps2cif' 
_symmetry_space_group_name_H-M    'P1' 
_symmetry_Int_Tables_number       1 
_symmetry_cell_setting            triclinic 
loop_ 
_symmetry_equiv_pos_as_xyz 
  x,y,z 
_cell_length_a                    37.165553341291286 
_cell_length_b                    40.689965811879496 
_cell_length_c                    22.920530848106083 
_cell_angle_alpha                 90.00639908400449 
_cell_angle_beta                  89.9985024460127 
_cell_angle_gamma                 113.03016512625936 
loop_ 
_atom_site_label 
_atom_site_type_symbol 
_atom_site_fract_x 
_atom_site_fract_y 
_atom_site_fract_z 
_atom_site_charge 
O1          O  0.27758386  0.33091576  0.56189929    -0.78890
O2          O  0.26833140  0.46363823  0.67161352    -0.63580
O3          O  0.30872248  0.39438197  0.63046296    -1.10180
C4          C  0.23220718  0.33245643  0.78829108     1.08000
O5          O  0.28295725  0.46162851  0.76473157    -0.76790
O6          O  0.31656024  0.41464427  0.79613739    -0.64370
Ni7        Ni  0.30981910  0.38140139  0.54999865     1.34870
C8          C  0.33009841  0.39162484  0.78134361     0.86740
O9          O  0.32008069  0.46313410  0.59094428    -0.77320
O10         O  0.34129155  0.43079208  0.53051513    -0.87600
C11         C  0.26824569  0.47351851  0.72388373     0.86310
O12         O  0.26379985  0.38666578  0.52263599    -0.65800
O13         O  0.24335983  0.36311300  0.81227567    -0.85090
C14         C  0.23977693  0.39726524  0.54724141     0.87140
C15         C  0.33997177  0.46028124  0.54743402     1.08710
H16         H  0.23164486  0.38941417  0.69644035     0.40510
O17         O  0.25905286  0.39688871  0.70581958    -1.07750
O18         O  0.31588834  0.36934856  0.73998505    -0.64400
Ni19       Ni  0.27447017  0.35977298  0.68305864     1.26350
O20         O  0.24546608  0.41209674  0.59691699    -0.64630
O21         O  0.23933743  0.32693943  0.73583714    -0.76920
C22         C  0.27454294  0.31018701  0.60491280     0.86520
O23         O  0.28783558  0.32235996  0.65459389    -0.64100
Ni24       Ni  0.26430567  0.41178646  0.78529702     1.27450
Ni25       Ni  0.28940842  0.43014541  0.64887709     1.26060
H26         H  0.33518826  0.40235019  0.64496768     0.41070
O27         O  0.16181094  0.21300141  0.10880021    -0.78890
O28         O  0.50949074  0.20947249  0.00626235    -0.63580
O29         O  0.09251790  0.17994001  0.04131618    -1.10180
C30         C  0.15431679  0.25608405  0.88497474     1.08000
O31         O  0.01526262  0.19784207  0.91462066    -0.76790
O32         O  0.07056743  0.17488383  0.87400452    -0.64370
Ni33       Ni  0.10827479  0.17895610  0.12099979     1.34870
C34         C  0.09732583  0.16436452  0.88843713     0.86740
O35         O  0.01659433  0.16336466  0.08457915    -0.77320
O36         O  0.05584580  0.14614927  0.14105403    -0.87600
C37         C  0.50342268  0.21366331  0.95308558     0.86310
O38         O  0.09739979  0.21767713  0.15151107    -0.65800
O39         O  0.12055094  0.24447572  0.86137544    -0.85090
C40         C  0.08331742  0.23831752  0.12857802     0.87140
C41         C  0.02237594  0.14584115  0.12708251     1.08710
H42         H  0.09067178  0.24885853  0.97938161     0.40510
O43         O  0.08461172  0.22429852  0.96862347    -1.07750
O44         O  0.12078452  0.17767333  0.93070894    -0.64400
Ni45       Ni  0.12810093  0.21409439  0.98903526     1.26350
O46         O  0.06711109  0.23316056  0.07892926    -0.64630
O47         O  0.16148686  0.24873361  0.93649715    -0.76920
C48         C  0.18461444  0.21883883  0.06511761     0.86520
O49         O  0.17192359  0.20578353  0.01567457    -0.64100
Ni50       Ni  0.06803314  0.22024858  0.88936675     1.27450
Ni51       Ni  0.04987271  0.19359080  0.02588138     1.26060
H52         H  0.08585346  0.15623064  0.02567394     0.41070
O53         O  0.20320709  0.18272432  0.56185851    -0.78890
O54         O  0.21247736  0.05004306  0.67160681    -0.63580
O55         O  0.17206199  0.11927194  0.63043354    -1.10180
C56         C  0.24853697  0.18123632  0.78826476     1.08000
O57         O  0.19784773  0.05206209  0.76472471    -0.76790
O58         O  0.16418942  0.09902240  0.79605981    -0.64370
Ni59       Ni  0.17096095  0.13223522  0.54996878     1.34870
C60         C  0.15065615  0.12204387  0.78126731     0.86740
O61         O  0.16072024  0.05051910  0.59093020    -0.77320
O62         O  0.13947957  0.08283796  0.53051039    -0.87600
C63         C  0.21256630  0.04017271  0.72387843     0.86310
O64         O  0.21697096  0.12695458  0.52259815    -0.65800
O65         O  0.23736910  0.15058483  0.81225917    -0.85090
C66         C  0.24100436  0.11637500  0.54721392     0.87140
C67         C  0.14081031  0.05335527  0.54743441     1.08710
H68         H  0.24914348  0.12426658  0.69643647     0.40510
O69         O  0.22173346  0.11679076  0.70580259    -1.07750
O70         O  0.16488433  0.14432753  0.73993312    -0.64400
Ni71       Ni  0.20630764  0.15389487  0.68302183     1.26350
O72         O  0.23532928  0.10157037  0.59690494    -0.64630
O73         O  0.24143302  0.18674246  0.73579668    -0.76920
C74         C  0.20624208  0.20345990  0.60486960     0.86520
O75         O  0.19293246  0.19129278  0.65454071    -0.64100
Ni76       Ni  0.21646013  0.10190687  0.78528196     1.27450
Ni77       Ni  0.19138726  0.08352158  0.64886024     1.26060
H78         H  0.14559582  0.11130132  0.64493640     0.41070
O79         O  0.43952192  0.18397903  0.44446508    -0.78890
O80         O  0.30639371  0.05275346  0.33337608    -0.63580
O81         O  0.40731121  0.12027956  0.37523726    -1.10180
C82         C  0.38604615  0.18684199  0.22133119     1.08000
O83         O  0.31793258  0.05729773  0.23823105    -0.76790
O84         O  0.39305054  0.10096523  0.20933825    -0.64370
Ni85       Ni  0.41999282  0.13237580  0.45606978     1.34870
C86         C  0.42731749  0.12091740  0.22568338     0.86740
O87         O  0.35977781  0.05027949  0.40881519    -0.77320
O88         O  0.40303132  0.08229638  0.47671904    -0.87600
C89         C  0.29573474  0.04361192  0.28146610     0.86310
O90         O  0.37097756  0.13283149  0.48060014    -0.65800
O91         O  0.36901718  0.15664959  0.19662423    -0.85090
C92         C  0.33686110  0.11877353  0.45925717     0.87140
C93         C  0.37910375  0.05277373  0.45556682     1.08710
H94         H  0.33461341  0.12873643  0.31493801     0.40510
O95         O  0.35470036  0.12067822  0.30279045    -1.07750
O96         O  0.43428672  0.14395937  0.26621389    -0.64400
Ni97       Ni  0.40390501  0.15616601  0.32435946     1.26350
O98         O  0.32881503  0.10101877  0.41221081    -0.64630
O99         O  0.39848919  0.19084162  0.27348711    -0.76920
C100        C  0.45675355  0.20345333  0.40119797     0.86520
O101        O  0.45214787  0.19147400  0.34969167    -0.64100
Ni102      Ni  0.34536876  0.10757778  0.22198952     1.27450
Ni103      Ni  0.35679030  0.08538424  0.35576120     1.26060
H104        H  0.42656810  0.11194913  0.36034279     0.41070
O105        O  0.04123572  0.32961426  0.44452351    -0.78890
O106        O  0.17434261  0.46082746  0.33341162    -0.63580
O107        O  0.07343187  0.39331278  0.37530932    -1.10180
C108        C  0.09463889  0.32673491  0.22135858     1.08000
O109        O  0.16277726  0.45627709  0.23827275    -0.76850
O110        O  0.08764638  0.41262147  0.20942731    -0.64370
Ni111      Ni  0.06076471  0.38122142  0.45614162     1.34870
C112        C  0.05338361  0.39267132  0.22578645     0.86740
O113        O  0.12097555  0.46331167  0.40888258    -0.77320
O114        O  0.07772701  0.43130554  0.47679369    -0.87600
C115        C  0.18498771  0.46996432  0.28149775     0.86310
O116        O  0.10978695  0.38077456  0.48065592    -0.65800
O117        O  0.11165902  0.35692545  0.19665308    -0.85090
C118        C  0.14389955  0.39482890  0.45930014     0.87140
C119        C  0.10165333  0.46082527  0.45563622     1.08710
H120        H  0.14611128  0.38484314  0.31495789     0.40510
O121        O  0.12602241  0.39290249  0.30282939    -1.07750
O122        O  0.04642497  0.36962680  0.26630058    -0.64400
Ni123      Ni  0.07682032  0.35742152  0.32441488     1.26350
O124        O  0.15193519  0.41257107  0.41224696    -0.64630
O125        O  0.08221683  0.32273931  0.27352472    -0.76920
C126        C  0.02399186  0.31014117  0.40125339     0.86520
O127        O  0.02858106  0.32212435  0.34975653    -0.64100
Ni128      Ni  0.13532630  0.40599777  0.22202713     1.27450
Ni129      Ni  0.12394948  0.42820182  0.35581614     1.26060
H130        H  0.05417399  0.40164533  0.36043061     0.41070
O131        O  0.31887480  0.30060210  0.10886911    -0.78890
O132        O  0.47120681  0.30415051  0.00634245    -0.63580
O133        O  0.38818241  0.33368481  0.04143092    -1.10180
C134        C  0.32640671  0.25759683  0.88499614     1.08000
O135        O  0.46545526  0.31581964  0.91471850    -0.76790
O136        O  0.41016175  0.33878914  0.87411902    -0.64370
Ni137      Ni  0.37240979  0.33464106  0.12111532     1.34870
C138        C  0.38340094  0.34930547  0.88855484     0.86740
O139        O  0.46409476  0.35023786  0.08471407    -0.77320
O140        O  0.42483666  0.36743922  0.14121039    -0.87600
C141        C  0.47728761  0.29998287  0.95315941     0.86310
O142        O  0.38327494  0.29590759  0.15158069    -0.65800
O143        O  0.36017740  0.26920422  0.86141409    -0.85090
C144        C  0.39735798  0.27527209  0.12862268     0.87140
C145        C  0.45830850  0.36775235  0.12723400     1.08710
H146        H  0.39002815  0.26478263  0.97941310     0.40510
O147        O  0.39609480  0.28934686  0.96868471    -1.07750
O148        O  0.35993815  0.33599217  0.93081809    -0.64400
Ni149      Ni  0.35260669  0.29955251  0.98910556     1.26350
O150        O  0.41357274  0.28044414  0.07898018    -0.64630
O151        O  0.31922764  0.26493432  0.93652482    -0.76920
C152        C  0.29608081  0.29478448  0.06517767     0.86520
O153        O  0.30878339  0.30786110  0.01575468    -0.64100
Ni154      Ni  0.41269005  0.29342037  0.88943537     1.27450
Ni155      Ni  0.43082534  0.32003188  0.02598099     1.26060
H156        H  0.39485329  0.35740012  0.02581926     0.41070
C157        C  0.49152841  0.38632610  0.16391546    -0.11270
C158        C  0.02042287  0.39359303  0.19381253    -0.12830
C159        C  0.39462849  0.24427480  0.16063643    -0.11270
C160        C  0.39131487  0.21812436  0.18821186    -0.12830
C161        C  0.48060232  0.24088558  0.40974625    -0.11270
C162        C  0.00014942  0.27270629  0.40977341    -0.12830
C163        C  0.25715706  0.01722139  0.27208500    -0.11270
C164        C  0.22356356  0.49635197  0.27209753    -0.12830
C165        C  0.12035831  0.02124069  0.51437004    -0.11270
C166        C  0.10885314  0.49340431  0.48748855    -0.12830
C167        C  0.30494747  0.12175417  0.49082244    -0.11270
C168        C  0.27627718  0.12065776  0.51675192    -0.12830
C169        C  0.27170972  0.21103455  0.82235649    -0.11270
C170        C  0.29495705  0.23382177  0.85154664    -0.12830
C171        C  0.46026919  0.11999945  0.19367498    -0.11270
C172        C  0.48915543  0.12726593  0.16375892    -0.12830
C173        C  0.25649684  0.26867220  0.06982936    -0.11270
C174        C  0.22419733  0.24494889  0.06981036    -0.12830
C175        C  0.49315065  0.24317771  0.93826254    -0.11270
C176        C  0.48756448  0.27047618  0.93828870    -0.12830
C177        C  0.08935720  0.29545107  0.18822468    -0.11270
C178        C  0.08604083  0.26930448  0.16062716    -0.12830
C179        C  0.12109877  0.12650495  0.81744464    -0.11270
C180        C  0.10498447  0.13927279  0.85109815    -0.12830
C181        C  0.37190695  0.02020339  0.48743017    -0.11270
C182        C  0.36041126  0.49238143  0.51434073    -0.12830
C183        C  0.24966426  0.99758235  0.73620401    -0.11270
C184        C  0.23115325  0.01611496  0.73620184    -0.12830
C185        C  0.25119347  0.27247551  0.59914598    -0.11270
C186        C  0.22960504  0.24116921  0.59912511    -0.12830
C187        C  0.35964048  0.38715953  0.81754723    -0.11270
C188        C  0.37574390  0.37439540  0.85121959    -0.12830
C189        C  0.20902233  0.30266318  0.82237666    -0.11270
C190        C  0.18577083  0.27987297  0.85155211    -0.12830
C191        C  0.17582165  0.39186173  0.49085992    -0.11270
C192        C  0.20449827  0.39297133  0.51678546    -0.12830
O193        O  0.27758385  0.83091576  0.56189929    -0.78890
O194        O  0.26833139  0.96363823  0.67161352    -0.63580
O195        O  0.30872247  0.89438197  0.63046296    -1.10180
C196        C  0.23220718  0.83245643  0.78829109     1.08000
O197        O  0.28295723  0.96162850  0.76473158    -0.76790
O198        O  0.31656024  0.91464427  0.79613739    -0.64370
Ni199      Ni  0.30981910  0.88140139  0.54999865     1.34870
C200        C  0.33009841  0.89162484  0.78134361     0.86740
O201        O  0.32008068  0.96313409  0.59094429    -0.77320
O202        O  0.34129155  0.93079208  0.53051513    -0.87600
C203        C  0.26824568  0.97351851  0.72388373     0.86310
O204        O  0.26379985  0.88666578  0.52263599    -0.65800
O205        O  0.24335984  0.86311300  0.81227567    -0.85090
C206        C  0.23977693  0.89726524  0.54724141     0.87140
C207        C  0.33997177  0.96028124  0.54743403     1.08710
H208        H  0.23164485  0.88941416  0.69644035     0.40510
O209        O  0.25905286  0.89688871  0.70581959    -1.07750
O210        O  0.31588834  0.86934856  0.73998505    -0.64400
Ni211      Ni  0.27447017  0.85977297  0.68305864     1.26350
O212        O  0.24546607  0.91209673  0.59691700    -0.64630
O213        O  0.23933742  0.82693943  0.73583714    -0.76920
C214        C  0.27454294  0.81018701  0.60491280     0.86520
O215        O  0.28783558  0.82235996  0.65459389    -0.64100
Ni216      Ni  0.26430567  0.91178645  0.78529702     1.27450
Ni217      Ni  0.28940841  0.93014540  0.64887709     1.26060
H218        H  0.33518825  0.90235019  0.64496769     0.41070
O219        O  0.16181094  0.71300141  0.10880021    -0.78890
O220        O  0.50949074  0.70947250  0.00626236    -0.63580
O221        O  0.09251791  0.67994001  0.04131619    -1.10180
C222        C  0.15431680  0.75608405  0.88497474     1.08000
O223        O  0.01526262  0.69784207  0.91462066    -0.76790
O224        O  0.07056743  0.67488382  0.87400453    -0.64370
Ni225      Ni  0.10827479  0.67895609  0.12099979     1.34870
C226        C  0.09732584  0.66436452  0.88843714     0.86740
O227        O  0.01659434  0.66336466  0.08457916    -0.77320
O228        O  0.05584580  0.64614927  0.14105403    -0.87600
C229        C  0.50342268  0.71366332  0.95308558     0.86310
O230        O  0.09739979  0.71767713  0.15151107    -0.65800
O231        O  0.12055095  0.74447572  0.86137545    -0.85090
C232        C  0.08331743  0.73831752  0.12857803     0.87140
C233        C  0.02237594  0.64584116  0.12708251     1.08710
H234        H  0.09067179  0.74885853  0.97938161     0.40510
O235        O  0.08461172  0.72429852  0.96862347    -1.07750
O236        O  0.12078452  0.67767333  0.93070895    -0.64400
Ni237      Ni  0.12810093  0.71409438  0.98903527     1.26350
O238        O  0.06711110  0.73316056  0.07892926    -0.64630
O239        O  0.16148687  0.74873360  0.93649716    -0.76920
C240        C  0.18461444  0.71883883  0.06511762     0.86520
O241        O  0.17192360  0.70578352  0.01567458    -0.64100
Ni242      Ni  0.06803315  0.72024858  0.88936675     1.27450
Ni243      Ni  0.04987271  0.69359080  0.02588139     1.26060
H244        H  0.08585346  0.65623064  0.02567395     0.41070
O245        O  0.20320709  0.68272432  0.56185852    -0.78890
O246        O  0.21247736  0.55004306  0.67160682    -0.63580
O247        O  0.17206199  0.61927194  0.63043354    -1.10180
C248        C  0.24853697  0.68123633  0.78826476     1.08000
O249        O  0.19784774  0.55206209  0.76472472    -0.76790
O250        O  0.16418943  0.59902240  0.79605982    -0.64370
Ni251      Ni  0.17096096  0.63223521  0.54996879     1.34870
C252        C  0.15065616  0.62204387  0.78126731     0.86740
O253        O  0.16072024  0.55051910  0.59093021    -0.77320
O254        O  0.13947957  0.58283796  0.53051040    -0.87600
C255        C  0.21256631  0.54017272  0.72387844     0.86310
O256        O  0.21697096  0.62695457  0.52259816    -0.65800
O257        O  0.23736910  0.65058484  0.81225917    -0.85090
C258        C  0.24100436  0.61637500  0.54721392     0.87140
C259        C  0.14081031  0.55335527  0.54743442     1.08710
H260        H  0.24914349  0.62426658  0.69643647     0.40510
O261        O  0.22173346  0.61679076  0.70580259    -1.07750
O262        O  0.16488434  0.64432753  0.73993312    -0.64400
Ni263      Ni  0.20630764  0.65389487  0.68302184     1.26350
O264        O  0.23532929  0.60157037  0.59690495    -0.64630
O265        O  0.24143303  0.68674246  0.73579668    -0.76920
C266        C  0.20624208  0.70345989  0.60486960     0.86520
O267        O  0.19293247  0.69129278  0.65454071    -0.64100
Ni268      Ni  0.21646014  0.60190687  0.78528197     1.27450
Ni269      Ni  0.19138727  0.58352158  0.64886025     1.26060
H270        H  0.14559583  0.61130132  0.64493640     0.41070
O271        O  0.43952193  0.68397904  0.44446508    -0.78890
O272        O  0.30639371  0.55275346  0.33337608    -0.63580
O273        O  0.40731121  0.62027956  0.37523725    -1.10180
C274        C  0.38604615  0.68684200  0.22133120     1.08000
O275        O  0.31793258  0.55729774  0.23823105    -0.76790
O276        O  0.39305053  0.60096524  0.20933825    -0.64370
Ni277      Ni  0.41999283  0.63237581  0.45606978     1.34870
C278        C  0.42731748  0.62091741  0.22568338     0.86740
O279        O  0.35977781  0.55027949  0.40881518    -0.77320
O280        O  0.40303133  0.58229638  0.47671903    -0.87600
C281        C  0.29573474  0.54361192  0.28146610     0.86310
O282        O  0.37097756  0.63283149  0.48060014    -0.65800
O283        O  0.36901717  0.65664960  0.19662424    -0.85090
C284        C  0.33686110  0.61877354  0.45925717     0.87140
C285        C  0.37910376  0.55277373  0.45556681     1.08710
H286        H  0.33461341  0.62873644  0.31493802     0.40510
O287        O  0.35470036  0.62067822  0.30279045    -1.07750
O288        O  0.43428672  0.64395937  0.26621388    -0.64400
Ni289      Ni  0.40390500  0.65616602  0.32435946     1.26350
O290        O  0.32881504  0.60101877  0.41221081    -0.64630
O291        O  0.39848918  0.69084163  0.27348712    -0.76920
C292        C  0.45675355  0.70345334  0.40119797     0.86520
O293        O  0.45214787  0.69147400  0.34969167    -0.64100
Ni294      Ni  0.34536876  0.60757779  0.22198952     1.27450
Ni295      Ni  0.35679030  0.58538424  0.35576119     1.26060
H296        H  0.42656810  0.61194913  0.36034278     0.41070
O297        O  0.04123572  0.82961427  0.44452350    -0.78890
O298        O  0.17434262  0.96082747  0.33341161    -0.63580
O299        O  0.07343187  0.89331279  0.37530931    -1.10180
C300        C  0.09463889  0.82673491  0.22135858     1.08000
O301        O  0.16277726  0.95627709  0.23827274    -0.76850
O302        O  0.08764638  0.91262147  0.20942730    -0.64370
Ni303      Ni  0.06076471  0.88122142  0.45614162     1.34870
C304        C  0.05338361  0.89267132  0.22578644     0.86740
O305        O  0.12097555  0.96331167  0.40888257    -0.77320
O306        O  0.07772701  0.93130555  0.47679368    -0.87600
C307        C  0.18498772  0.96996432  0.28149775     0.86310
O308        O  0.10978695  0.88077456  0.48065592    -0.65800
O309        O  0.11165903  0.85692545  0.19665308    -0.85090
C310        C  0.14389955  0.89482890  0.45930014     0.87140
C311        C  0.10165333  0.96082528  0.45563621     1.08710
H312        H  0.14611128  0.88484315  0.31495789     0.40510
O313        O  0.12602241  0.89290249  0.30282939    -1.07750
O314        O  0.04642498  0.86962681  0.26630057    -0.64400
Ni315      Ni  0.07682032  0.85742152  0.32441487     1.26350
O316        O  0.15193519  0.91257108  0.41224695    -0.64630
O317        O  0.08221683  0.82273931  0.27352471    -0.76920
C318        C  0.02399186  0.81014117  0.40125338     0.86520
O319        O  0.02858106  0.82212436  0.34975652    -0.64100
Ni320      Ni  0.13532630  0.90599777  0.22202713     1.27450
Ni321      Ni  0.12394948  0.92820182  0.35581614     1.26060
H322        H  0.05417399  0.90164533  0.36043060     0.41070
O323        O  0.31887480  0.80060210  0.10886911    -0.78890
O324        O  0.47120681  0.80415051  0.00634246    -0.63580
O325        O  0.38818240  0.83368482  0.04143092    -1.10180
C326        C  0.32640671  0.75759683  0.88499614     1.08000
O327        O  0.46545526  0.81581965  0.91471851    -0.76790
O328        O  0.41016175  0.83878915  0.87411903    -0.64370
Ni329      Ni  0.37240979  0.83464107  0.12111532     1.34870
C330        C  0.38340094  0.84930547  0.88855485     0.86740
O331        O  0.46409475  0.85023787  0.08471408    -0.77320
O332        O  0.42483665  0.86743923  0.14121039    -0.87600
C333        C  0.47728761  0.79998287  0.95315942     0.86310
O334        O  0.38327494  0.79590760  0.15158069    -0.65800
O335        O  0.36017740  0.76920423  0.86141410    -0.85090
C336        C  0.39735797  0.77527210  0.12862269     0.87140
C337        C  0.45830849  0.86775236  0.12723400     1.08710
H338        H  0.39002815  0.76478264  0.97941310     0.40510
O339        O  0.39609480  0.78934686  0.96868471    -1.07750
O340        O  0.35993815  0.83599217  0.93081809    -0.64400
Ni341      Ni  0.35260668  0.79955251  0.98910556     1.26350
O342        O  0.41357273  0.78044414  0.07898019    -0.64630
O343        O  0.31922764  0.76493433  0.93652482    -0.76920
C344        C  0.29608080  0.79478449  0.06517767     0.86520
O345        O  0.30878338  0.80786111  0.01575468    -0.64100
Ni346      Ni  0.41269005  0.79342038  0.88943538     1.27450
Ni347      Ni  0.43082534  0.82003188  0.02598099     1.26060
H348        H  0.39485328  0.85740012  0.02581926     0.41070
C349        C  0.49152841  0.88632611  0.16391547    -0.11270
C350        C  0.02042288  0.89359303  0.19381252    -0.12830
C351        C  0.39462849  0.74427481  0.16063644    -0.11270
C352        C  0.39131486  0.71812437  0.18821187    -0.12830
C353        C  0.48060232  0.74088559  0.40974625    -0.11270
C354        C  0.00014942  0.77270630  0.40977340    -0.12830
C355        C  0.25715706  0.51722139  0.27208500    -0.11270
C356        C  0.22356356  0.99635197  0.27209752    -0.12830
C357        C  0.12035831  0.52124068  0.51437005    -0.11270
C358        C  0.10885314  0.99340431  0.48748853    -0.12830
C359        C  0.30494748  0.62175417  0.49082245    -0.11270
C360        C  0.27627718  0.62065776  0.51675193    -0.12830
C361        C  0.27170972  0.71103456  0.82235649    -0.11270
C362        C  0.29495705  0.73382178  0.85154664    -0.12830
C363        C  0.46026918  0.61999945  0.19367498    -0.11270
C364        C  0.48915542  0.62726594  0.16375892    -0.12830
C365        C  0.25649684  0.76867221  0.06982936    -0.11270
C366        C  0.22419733  0.74494889  0.06981036    -0.12830
C367        C  0.49315065  0.74317772  0.93826255    -0.11270
C368        C  0.48756447  0.77047619  0.93828871    -0.12830
C369        C  0.08935721  0.79545107  0.18822468    -0.11270
C370        C  0.08604084  0.76930448  0.16062717    -0.12830
C371        C  0.12109878  0.62650494  0.81744464    -0.11270
C372        C  0.10498447  0.63927278  0.85109815    -0.12830
C373        C  0.37190695  0.52020339  0.48743016    -0.11270
C374        C  0.36041125  0.99238143  0.51434074    -0.12830
C375        C  0.24966427  0.49758236  0.73620401    -0.11270
C376        C  0.23115326  0.51611497  0.73620184    -0.12830
C377        C  0.25119347  0.77247551  0.59914598    -0.11270
C378        C  0.22960504  0.74116921  0.59912511    -0.12830
C379        C  0.35964048  0.88715953  0.81754723    -0.11270
C380        C  0.37574390  0.87439540  0.85121959    -0.12830
C381        C  0.20902233  0.80266318  0.82237666    -0.11270
C382        C  0.18577084  0.77987296  0.85155211    -0.12830
C383        C  0.17582165  0.89186173  0.49085992    -0.11270
C384        C  0.20449827  0.89297133  0.51678546    -0.12830
O385        O  0.77758387  0.33091576  0.56189929    -0.78890
O386        O  0.76833140  0.46363823  0.67161352    -0.63580
O387        O  0.80872248  0.39438197  0.63046296    -1.10180
C388        C  0.73220719  0.33245643  0.78829108     1.08000
O389        O  0.78295724  0.46162850  0.76473157    -0.76790
O390        O  0.81656025  0.41464427  0.79613739    -0.64370
Ni391      Ni  0.80981911  0.38140139  0.54999865     1.34870
C392        C  0.83009842  0.39162484  0.78134361     0.86740
O393        O  0.82008069  0.46313410  0.59094429    -0.77320
O394        O  0.84129156  0.43079208  0.53051514    -0.87600
C395        C  0.76824569  0.47351851  0.72388373     0.86310
O396        O  0.76379986  0.38666578  0.52263599    -0.65800
O397        O  0.74335984  0.36311300  0.81227567    -0.85090
C398        C  0.73977694  0.39726524  0.54724141     0.87140
C399        C  0.83997178  0.46028124  0.54743403     1.08710
H400        H  0.73164486  0.38941416  0.69644035     0.40510
O401        O  0.75905287  0.39688871  0.70581958    -1.07750
O402        O  0.81588834  0.36934856  0.73998506    -0.64400
Ni403      Ni  0.77447018  0.35977297  0.68305864     1.26350
O404        O  0.74546608  0.41209673  0.59691699    -0.64630
O405        O  0.73933743  0.32693943  0.73583714    -0.76920
C406        C  0.77454295  0.31018701  0.60491280     0.86520
O407        O  0.78783559  0.32235996  0.65459390    -0.64100
Ni408      Ni  0.76430567  0.41178645  0.78529702     1.27450
Ni409      Ni  0.78940842  0.43014540  0.64887709     1.26060
H410        H  0.83518826  0.40235019  0.64496769     0.41070
O411        O  0.66181094  0.21300141  0.10880021    -0.78890
O412        O  0.00949074  0.20947249  0.00626236    -0.63580
O413        O  0.59251790  0.17994001  0.04131618    -1.10180
C414        C  0.65431680  0.25608405  0.88497474     1.08000
O415        O  0.51526262  0.19784208  0.91462066    -0.76790
O416        O  0.57056743  0.17488383  0.87400451    -0.64370
Ni417      Ni  0.60827478  0.17895609  0.12099978     1.34870
C418        C  0.59732584  0.16436452  0.88843713     0.86740
O419        O  0.51659433  0.16336466  0.08457915    -0.77320
O420        O  0.55584580  0.14614927  0.14105402    -0.87600
C421        C  0.00342268  0.21366331  0.95308558     0.86310
O422        O  0.59739979  0.21767713  0.15151107    -0.65800
O423        O  0.62055094  0.24447572  0.86137544    -0.85090
C424        C  0.58331743  0.23831751  0.12857802     0.87140
C425        C  0.52237594  0.14584115  0.12708250     1.08710
H426        H  0.59067178  0.24885853  0.97938160     0.40510
O427        O  0.58461172  0.22429852  0.96862346    -1.07750
O428        O  0.62078452  0.17767333  0.93070894    -0.64400
Ni429      Ni  0.62810093  0.21409438  0.98903526     1.26350
O430        O  0.56711110  0.23316056  0.07892926    -0.64630
O431        O  0.66148686  0.24873361  0.93649715    -0.76920
C432        C  0.68461444  0.21883883  0.06511761     0.86520
O433        O  0.67192359  0.20578352  0.01567457    -0.64100
Ni434      Ni  0.56803315  0.22024858  0.88936675     1.27450
Ni435      Ni  0.54987271  0.19359080  0.02588138     1.26060
H436        H  0.58585345  0.15623064  0.02567394     0.41070
O437        O  0.70320710  0.18272433  0.56185851    -0.78890
O438        O  0.71247736  0.05004306  0.67160681    -0.63580
O439        O  0.67206199  0.11927195  0.63043353    -1.10180
C440        C  0.74853697  0.18123633  0.78826476     1.08000
O441        O  0.69784773  0.05206209  0.76472471    -0.76790
O442        O  0.66418942  0.09902240  0.79605980    -0.64370
Ni443      Ni  0.67096096  0.13223522  0.54996878     1.34870
C444        C  0.65065615  0.12204387  0.78126730     0.86740
O445        O  0.66072024  0.05051911  0.59093019    -0.77320
O446        O  0.63947957  0.08283796  0.53051039    -0.87600
C447        C  0.71256630  0.04017271  0.72387843     0.86310
O448        O  0.71697096  0.12695458  0.52259815    -0.65800
O449        O  0.73736909  0.15058483  0.81225917    -0.85090
C450        C  0.74100436  0.11637500  0.54721392     0.87140
C451        C  0.64081031  0.05335527  0.54743441     1.08710
H452        H  0.74914349  0.12426658  0.69643647     0.40510
O453        O  0.72173346  0.11679076  0.70580259    -1.07750
O454        O  0.66488434  0.14432754  0.73993312    -0.64400
Ni455      Ni  0.70630764  0.15389488  0.68302183     1.26350
O456        O  0.73532929  0.10157037  0.59690495    -0.64630
O457        O  0.74143303  0.18674246  0.73579668    -0.76920
C458        C  0.70624209  0.20345990  0.60486960     0.86520
O459        O  0.69293247  0.19129278  0.65454071    -0.64100
Ni460      Ni  0.71646013  0.10190687  0.78528197     1.27450
Ni461      Ni  0.69138727  0.08352158  0.64886024     1.26060
H462        H  0.64559582  0.11130132  0.64493639     0.41070
O463        O  0.93952192  0.18397903  0.44446508    -0.78890
O464        O  0.80639371  0.05275346  0.33337608    -0.63580
O465        O  0.90731121  0.12027956  0.37523726    -1.10180
C466        C  0.88604615  0.18684199  0.22133120     1.08000
O467        O  0.81793259  0.05729773  0.23823105    -0.76790
O468        O  0.89305054  0.10096523  0.20933825    -0.64370
Ni469      Ni  0.91999283  0.13237580  0.45606978     1.34870
C470        C  0.92731749  0.12091740  0.22568339     0.86740
O471        O  0.85977781  0.05027948  0.40881519    -0.77320
O472        O  0.90303133  0.08229638  0.47671904    -0.87600
C473        C  0.79573474  0.04361191  0.28146610     0.86310
O474        O  0.87097756  0.13283148  0.48060014    -0.65800
O475        O  0.86901718  0.15664959  0.19662423    -0.85090
C476        C  0.83686110  0.11877353  0.45925717     0.87140
C477        C  0.87910376  0.05277373  0.45556682     1.08710
H478        H  0.83461341  0.12873643  0.31493801     0.40510
O479        O  0.85470037  0.12067821  0.30279045    -1.07750
O480        O  0.93428672  0.14395937  0.26621389    -0.64400
Ni481      Ni  0.90390501  0.15616601  0.32435946     1.26350
O482        O  0.82881504  0.10101876  0.41221081    -0.64630
O483        O  0.89848919  0.19084162  0.27348711    -0.76920
C484        C  0.95675355  0.20345333  0.40119797     0.86520
O485        O  0.95214787  0.19147400  0.34969167    -0.64100
Ni486      Ni  0.84536876  0.10757778  0.22198952     1.27450
Ni487      Ni  0.85679030  0.08538423  0.35576120     1.26060
H488        H  0.92656810  0.11194913  0.36034278     0.41070
O489        O  0.54123573  0.32961426  0.44452350    -0.78890
O490        O  0.67434262  0.46082746  0.33341161    -0.63580
O491        O  0.57343187  0.39331278  0.37530931    -1.10180
C492        C  0.59463889  0.32673491  0.22135858     1.08000
O493        O  0.66277726  0.45627708  0.23827275    -0.76850
O494        O  0.58764639  0.41262147  0.20942730    -0.64370
Ni495      Ni  0.56076471  0.38122142  0.45614162     1.34870
C496        C  0.55338361  0.39267131  0.22578644     0.86740
O497        O  0.62097555  0.46331167  0.40888258    -0.77320
O498        O  0.57772702  0.43130554  0.47679369    -0.87600
C499        C  0.68498772  0.46996432  0.28149775     0.86310
O500        O  0.60978695  0.38077456  0.48065592    -0.65800
O501        O  0.61165903  0.35692544  0.19665308    -0.85090
C502        C  0.64389956  0.39482890  0.45930014     0.87140
C503        C  0.60165334  0.46082527  0.45563622     1.08710
H504        H  0.64611128  0.38484314  0.31495789     0.40510
O505        O  0.62602241  0.39290249  0.30282939    -1.07750
O506        O  0.54642498  0.36962680  0.26630058    -0.64400
Ni507      Ni  0.57682033  0.35742152  0.32441488     1.26350
O508        O  0.65193520  0.41257107  0.41224696    -0.64630
O509        O  0.58221684  0.32273931  0.27352471    -0.76920
C510        C  0.52399187  0.31014117  0.40125339     0.86520
O511        O  0.52858107  0.32212435  0.34975652    -0.64100
Ni512      Ni  0.63532630  0.40599777  0.22202713     1.27450
Ni513      Ni  0.62394948  0.42820182  0.35581614     1.26060
H514        H  0.55417400  0.40164533  0.36043061     0.41070
O515        O  0.81887480  0.30060209  0.10886911    -0.78890
O516        O  0.97120681  0.30415051  0.00634246    -0.63580
O517        O  0.88818240  0.33368481  0.04143093    -1.10180
C518        C  0.82640670  0.25759683  0.88499614     1.08000
O519        O  0.96545526  0.31581964  0.91471851    -0.76790
O520        O  0.91016175  0.33878914  0.87411903    -0.64370
Ni521      Ni  0.87240979  0.33464106  0.12111532     1.34870
C522        C  0.88340093  0.34930547  0.88855485     0.86740
O523        O  0.96409475  0.35023786  0.08471408    -0.77320
O524        O  0.92483665  0.36743921  0.14121039    -0.87600
C525        C  0.97728761  0.29998286  0.95315942     0.86310
O526        O  0.88327494  0.29590758  0.15158069    -0.65800
O527        O  0.86017739  0.26920422  0.86141410    -0.85090
C528        C  0.89735797  0.27527209  0.12862269     0.87140
C529        C  0.95830849  0.36775235  0.12723401     1.08710
H530        H  0.89002815  0.26478263  0.97941311     0.40510
O531        O  0.89609480  0.28934686  0.96868472    -1.07750
O532        O  0.85993815  0.33599217  0.93081809    -0.64400
Ni533      Ni  0.85260668  0.29955250  0.98910556     1.26350
O534        O  0.91357274  0.28044413  0.07898019    -0.64630
O535        O  0.81922764  0.26493432  0.93652482    -0.76920
C536        C  0.79608080  0.29478448  0.06517767     0.86520
O537        O  0.80878338  0.30786110  0.01575469    -0.64100
Ni538      Ni  0.91269005  0.29342037  0.88943538     1.27450
Ni539      Ni  0.93082534  0.32003187  0.02598099     1.26060
H540        H  0.89485328  0.35740012  0.02581927     0.41070
C541        C  0.99152841  0.38632610  0.16391547    -0.11270
C542        C  0.52042288  0.39359303  0.19381253    -0.12830
C543        C  0.89462849  0.24427480  0.16063644    -0.11270
C544        C  0.89131487  0.21812436  0.18821187    -0.12830
C545        C  0.98060232  0.24088558  0.40974625    -0.11270
C546        C  0.50014942  0.27270629  0.40977340    -0.12830
C547        C  0.75715706  0.01722139  0.27208500    -0.11270
C548        C  0.72356357  0.49635197  0.27209753    -0.12830
C549        C  0.62035831  0.02124069  0.51437004    -0.11270
C550        C  0.60885315  0.49340430  0.48748854    -0.12830
C551        C  0.80494748  0.12175417  0.49082245    -0.11270
C552        C  0.77627718  0.12065776  0.51675192    -0.12830
C553        C  0.77170972  0.21103455  0.82235649    -0.11270
C554        C  0.79495705  0.23382177  0.85154664    -0.12830
C555        C  0.96026919  0.11999945  0.19367499    -0.11270
C556        C  0.98915543  0.12726593  0.16375893    -0.12830
C557        C  0.75649683  0.26867220  0.06982936    -0.11270
C558        C  0.72419732  0.24494888  0.06981036    -0.12830
C559        C  0.99315065  0.24317771  0.93826255    -0.11270
C560        C  0.98756447  0.27047618  0.93828871    -0.12830
C561        C  0.58935720  0.29545107  0.18822468    -0.11270
C562        C  0.58604083  0.26930448  0.16062716    -0.12830
C563        C  0.62109877  0.12650495  0.81744463    -0.11270
C564        C  0.60498447  0.13927279  0.85109814    -0.12830
C565        C  0.87190695  0.02020339  0.48743017    -0.11270
C566        C  0.86041126  0.49238143  0.51434074    -0.12830
C567        C  0.74966427  0.99758236  0.73620401    -0.11270
C568        C  0.73115326  0.01611497  0.73620184    -0.12830
C569        C  0.75119348  0.27247552  0.59914598    -0.11270
C570        C  0.72960505  0.24116921  0.59912511    -0.12830
C571        C  0.85964048  0.38715953  0.81754724    -0.11270
C572        C  0.87574390  0.37439540  0.85121960    -0.12830
C573        C  0.70902233  0.30266318  0.82237666    -0.11270
C574        C  0.68577084  0.27987296  0.85155211    -0.12830
C575        C  0.67582165  0.39186172  0.49085992    -0.11270
C576        C  0.70449828  0.39297133  0.51678546    -0.12830
O577        O  0.77758385  0.83091576  0.56189929    -0.78890
O578        O  0.76833140  0.96363823  0.67161352    -0.63580
O579        O  0.80872247  0.89438197  0.63046296    -1.10180
C580        C  0.73220718  0.83245643  0.78829109     1.08000
O581        O  0.78295724  0.96162850  0.76473157    -0.76790
O582        O  0.81656024  0.91464427  0.79613739    -0.64370
Ni583      Ni  0.80981909  0.88140138  0.54999865     1.34870
C584        C  0.83009841  0.89162484  0.78134361     0.86740
O585        O  0.82008069  0.96313409  0.59094429    -0.77320
O586        O  0.84129155  0.93079208  0.53051513    -0.87600
C587        C  0.76824569  0.97351851  0.72388373     0.86310
O588        O  0.76379985  0.88666578  0.52263599    -0.65800
O589        O  0.74335984  0.86311300  0.81227568    -0.85090
C590        C  0.73977693  0.89726524  0.54724141     0.87140
C591        C  0.83997177  0.96028124  0.54743403     1.08710
H592        H  0.73164486  0.88941416  0.69644035     0.40510
O593        O  0.75905286  0.89688871  0.70581958    -1.07750
O594        O  0.81588833  0.86934856  0.73998505    -0.64400
Ni595      Ni  0.77447017  0.85977297  0.68305864     1.26350
O596        O  0.74546608  0.91209674  0.59691700    -0.64630
O597        O  0.73933742  0.82693943  0.73583714    -0.76920
C598        C  0.77454293  0.81018700  0.60491280     0.86520
O599        O  0.78783558  0.82235995  0.65459390    -0.64100
Ni600      Ni  0.76430567  0.91178645  0.78529702     1.27450
Ni601      Ni  0.78940841  0.93014540  0.64887709     1.26060
H602        H  0.83518825  0.90235018  0.64496769     0.41070
O603        O  0.66181094  0.71300142  0.10880021    -0.78890
O604        O  0.00949075  0.70947249  0.00626236    -0.63580
O605        O  0.59251790  0.67994001  0.04131618    -1.10180
C606        C  0.65431679  0.75608405  0.88497474     1.08000
O607        O  0.51526262  0.69784208  0.91462066    -0.76790
O608        O  0.57056743  0.67488383  0.87400452    -0.64370
Ni609      Ni  0.60827478  0.67895610  0.12099979     1.34870
C610        C  0.59732583  0.66436452  0.88843714     0.86740
O611        O  0.51659433  0.66336467  0.08457915    -0.77320
O612        O  0.55584579  0.64614928  0.14105403    -0.87600
C613        C  0.00342268  0.71366331  0.95308558     0.86310
O614        O  0.59739978  0.71767714  0.15151107    -0.65800
O615        O  0.62055094  0.74447572  0.86137545    -0.85090
C616        C  0.58331742  0.73831752  0.12857802     0.87140
C617        C  0.52237593  0.64584116  0.12708250     1.08710
H618        H  0.59067178  0.74885854  0.97938161     0.40510
O619        O  0.58461172  0.72429852  0.96862347    -1.07750
O620        O  0.62078452  0.67767333  0.93070894    -0.64400
Ni621      Ni  0.62810093  0.71409439  0.98903527     1.26350
O622        O  0.56711109  0.73316056  0.07892926    -0.64630
O623        O  0.66148686  0.74873361  0.93649716    -0.76920
C624        C  0.68461443  0.71883883  0.06511762     0.86520
O625        O  0.67192359  0.70578353  0.01567458    -0.64100
Ni626      Ni  0.56803314  0.72024858  0.88936675     1.27450
Ni627      Ni  0.54987271  0.69359080  0.02588138     1.26060
H628        H  0.58585345  0.65623064  0.02567395     0.41070
O629        O  0.70320709  0.68272432  0.56185852    -0.78890
O630        O  0.71247736  0.55004306  0.67160683    -0.63580
O631        O  0.67206199  0.61927194  0.63043354    -1.10180
C632        C  0.74853696  0.68123632  0.78826477     1.08000
O633        O  0.69784773  0.55206209  0.76472472    -0.76790
O634        O  0.66418942  0.59902240  0.79605981    -0.64370
Ni635      Ni  0.67096096  0.63223521  0.54996879     1.34870
C636        C  0.65065615  0.62204386  0.78126731     0.86740
O637        O  0.66072024  0.55051910  0.59093021    -0.77320
O638        O  0.63947957  0.58283795  0.53051040    -0.87600
C639        C  0.71256631  0.54017271  0.72387844     0.86310
O640        O  0.71697096  0.62695457  0.52259816    -0.65800
O641        O  0.73736909  0.65058483  0.81225918    -0.85090
C642        C  0.74100436  0.61637499  0.54721393     0.87140
C643        C  0.64081031  0.55335526  0.54743442     1.08710
H644        H  0.74914348  0.62426658  0.69643648     0.40510
O645        O  0.72173346  0.61679076  0.70580260    -1.07750
O646        O  0.66488433  0.64432753  0.73993313    -0.64400
Ni647      Ni  0.70630764  0.65389487  0.68302184     1.26350
O648        O  0.73532928  0.60157037  0.59690496    -0.64630
O649        O  0.74143302  0.68674246  0.73579668    -0.76920
C650        C  0.70624208  0.70345989  0.60486960     0.86520
O651        O  0.69293246  0.69129278  0.65454072    -0.64100
Ni652      Ni  0.71646013  0.60190687  0.78528197     1.27450
Ni653      Ni  0.69138727  0.58352158  0.64886025     1.26060
H654        H  0.64559582  0.61130131  0.64493640     0.41070
O655        O  0.93952192  0.68397904  0.44446508    -0.78890
O656        O  0.80639371  0.55275346  0.33337608    -0.63580
O657        O  0.90731121  0.62027956  0.37523726    -1.10180
C658        C  0.88604615  0.68684199  0.22133120     1.08000
O659        O  0.81793259  0.55729774  0.23823105    -0.76790
O660        O  0.89305054  0.60096524  0.20933826    -0.64370
Ni661      Ni  0.91999283  0.63237581  0.45606978     1.34870
C662        C  0.92731749  0.62091741  0.22568339     0.86740
O663        O  0.85977781  0.55027949  0.40881519    -0.77320
O664        O  0.90303133  0.58229638  0.47671904    -0.87600
C665        C  0.79573475  0.54361192  0.28146610     0.86310
O666        O  0.87097756  0.63283149  0.48060014    -0.65800
O667        O  0.86901718  0.65664960  0.19662423    -0.85090
C668        C  0.83686110  0.61877353  0.45925718     0.87140
C669        C  0.87910376  0.55277373  0.45556682     1.08710
H670        H  0.83461341  0.62873643  0.31493801     0.40510
O671        O  0.85470037  0.62067822  0.30279045    -1.07750
O672        O  0.93428672  0.64395937  0.26621389    -0.64400
Ni673      Ni  0.90390501  0.65616602  0.32435946     1.26350
O674        O  0.82881504  0.60101877  0.41221081    -0.64630
O675        O  0.89848918  0.69084163  0.27348711    -0.76920
C676        C  0.95675355  0.70345334  0.40119797     0.86520
O677        O  0.95214787  0.69147400  0.34969167    -0.64100
Ni678      Ni  0.84536876  0.60757778  0.22198952     1.27450
Ni679      Ni  0.85679030  0.58538424  0.35576120     1.26060
H680        H  0.92656810  0.61194913  0.36034279     0.41070
O681        O  0.54123572  0.82961427  0.44452350    -0.78890
O682        O  0.67434261  0.96082747  0.33341161    -0.63580
O683        O  0.57343187  0.89331279  0.37530931    -1.10180
C684        C  0.59463888  0.82673492  0.22135858     1.08000
O685        O  0.66277726  0.95627709  0.23827274    -0.76850
O686        O  0.58764638  0.91262148  0.20942731    -0.64370
Ni687      Ni  0.56076470  0.88122142  0.45614162     1.34870
C688        C  0.55338361  0.89267132  0.22578645     0.86740
O689        O  0.62097555  0.96331167  0.40888258    -0.77320
O690        O  0.57772700  0.93130555  0.47679368    -0.87600
C691        C  0.68498771  0.96996432  0.28149775     0.86310
O692        O  0.60978695  0.88077457  0.48065592    -0.65800
O693        O  0.61165901  0.85692545  0.19665307    -0.85090
C694        C  0.64389955  0.89482890  0.45930014     0.87140
C695        C  0.60165333  0.96082528  0.45563621     1.08710
H696        H  0.64611128  0.88484315  0.31495788     0.40510
O697        O  0.62602241  0.89290249  0.30282939    -1.07750
O698        O  0.54642497  0.86962681  0.26630058    -0.64400
Ni699      Ni  0.57682032  0.85742153  0.32441487     1.26350
O700        O  0.65193519  0.91257108  0.41224695    -0.64630
O701        O  0.58221683  0.82273932  0.27352471    -0.76920
C702        C  0.52399186  0.81014117  0.40125339     0.86520
O703        O  0.52858106  0.82212436  0.34975652    -0.64100
Ni704      Ni  0.63532629  0.90599778  0.22202713     1.27450
Ni705      Ni  0.62394948  0.92820183  0.35581614     1.26060
H706        H  0.55417399  0.90164533  0.36043061     0.41070
O707        O  0.81887480  0.80060210  0.10886911    -0.78890
O708        O  0.97120680  0.80415050  0.00634245    -0.63580
O709        O  0.88818240  0.83368481  0.04143092    -1.10180
C710        C  0.82640670  0.75759683  0.88499614     1.08000
O711        O  0.96545526  0.81581964  0.91471850    -0.76790
O712        O  0.91016175  0.83878914  0.87411903    -0.64370
Ni713      Ni  0.87240979  0.83464106  0.12111532     1.34870
C714        C  0.88340093  0.84930547  0.88855484     0.86740
O715        O  0.96409476  0.85023786  0.08471407    -0.77320
O716        O  0.92483666  0.86743922  0.14121038    -0.87600
C717        C  0.97728760  0.79998286  0.95315941     0.86310
O718        O  0.88327494  0.79590759  0.15158069    -0.65800
O719        O  0.86017739  0.76920422  0.86141410    -0.85090
C720        C  0.89735798  0.77527209  0.12862268     0.87140
C721        C  0.95830850  0.86775235  0.12723399     1.08710
H722        H  0.89002815  0.76478263  0.97941310     0.40510
O723        O  0.89609480  0.78934686  0.96868471    -1.07750
O724        O  0.85993815  0.83599216  0.93081809    -0.64400
Ni725      Ni  0.85260668  0.79955251  0.98910556     1.26350
O726        O  0.91357274  0.78044414  0.07898018    -0.64630
O727        O  0.81922763  0.76493432  0.93652482    -0.76920
C728        C  0.79608080  0.79478448  0.06517767     0.86520
O729        O  0.80878338  0.80786110  0.01575468    -0.64100
Ni730      Ni  0.91269004  0.79342037  0.88943537     1.27450
Ni731      Ni  0.93082534  0.82003188  0.02598099     1.26060
H732        H  0.89485328  0.85740012  0.02581926     0.41070
C733        C  0.99152841  0.88632610  0.16391546    -0.11270
C734        C  0.52042287  0.89359304  0.19381253    -0.12830
C735        C  0.89462849  0.74427480  0.16063643    -0.11270
C736        C  0.89131487  0.71812437  0.18821187    -0.12830
C737        C  0.98060231  0.74088559  0.40974625    -0.11270
C738        C  0.50014942  0.77270630  0.40977341    -0.12830
C739        C  0.75715706  0.51722139  0.27208500    -0.11270
C740        C  0.72356356  0.99635197  0.27209753    -0.12830
C741        C  0.62035832  0.52124068  0.51437005    -0.11270
C742        C  0.60885314  0.99340431  0.48748854    -0.12830
C743        C  0.80494748  0.62175417  0.49082245    -0.11270
C744        C  0.77627718  0.62065776  0.51675193    -0.12830
C745        C  0.77170971  0.71103455  0.82235649    -0.11270
C746        C  0.79495704  0.73382177  0.85154665    -0.12830
C747        C  0.96026919  0.61999945  0.19367499    -0.11270
C748        C  0.98915543  0.62726593  0.16375893    -0.12830
C749        C  0.75649683  0.76867220  0.06982937    -0.11270
C750        C  0.72419732  0.74494889  0.06981037    -0.12830
C751        C  0.99315065  0.74317771  0.93826255    -0.11270
C752        C  0.98756447  0.77047618  0.93828870    -0.12830
C753        C  0.58935720  0.79545108  0.18822468    -0.11270
C754        C  0.58604083  0.76930449  0.16062716    -0.12830
C755        C  0.62109877  0.62650494  0.81744464    -0.11270
C756        C  0.60498447  0.63927279  0.85109815    -0.12830
C757        C  0.87190696  0.52020340  0.48743017    -0.11270
C758        C  0.86041126  0.99238143  0.51434074    -0.12830
C759        C  0.74966427  0.49758235  0.73620401    -0.11270
C760        C  0.73115326  0.51611496  0.73620185    -0.12830
C761        C  0.75119346  0.77247551  0.59914598    -0.11270
C762        C  0.72960503  0.74116920  0.59912511    -0.12830
C763        C  0.85964047  0.88715953  0.81754723    -0.11270
C764        C  0.87574390  0.87439540  0.85121959    -0.12830
C765        C  0.70902233  0.80266318  0.82237666    -0.11270
C766        C  0.68577083  0.77987297  0.85155211    -0.12830
C767        C  0.67582165  0.89186173  0.49085992    -0.11270
C768        C  0.70449827  0.89297133  0.51678546    -0.12830
loop_ 
_geom_bond_atom_site_label_1 
_geom_bond_atom_site_label_2 
_geom_bond_distance 
_geom_bond_site_symmetry_2 
_ccdc_geom_bond_type 
O1           Ni7   1.950       .  S
O1           C22   1.273       .  A
O2          Ni25   1.891       .  S
O2           C11   1.264       .  A
O3           Ni7   1.923       .  S
O3          Ni25   1.905       .  S
O3          Ni19   1.912       .  S
O3           H26   0.966       .  S
C4           O21   1.270       .  A
C4           O13   1.275       .  A
C4          C189   1.416       .  S
O5          Ni24   1.928       .  S
O5           C11   1.271       .  A
O6          Ni24   1.916       .  S
O6            C8   1.270       .  A
Ni7          O10   1.941       .  S
Ni7          O12   1.911       .  S
C8           O18   1.275       .  A
C8          C187   1.443       .  S
O9          Ni25   1.915       .  S
O9           C15   1.273       .  A
O10          C15   1.280       .  A
C11         C375   1.430       .  S
O12          C14   1.266       .  A
O13         Ni24   1.925       .  S
C14          O20   1.267       .  A
C14         C192   1.434       .  S
C15         C182   1.443       .  S
H16          O17   0.966       .  S
O17         Ni25   1.901       .  S
O17         Ni19   1.886       .  S
O17         Ni24   1.906       .  S
O18         Ni19   1.938       .  S
Ni19         O23   1.892       .  S
Ni19         O21   1.894       .  S
O20         Ni25   1.920       .  S
C22          O23   1.263       .  A
C22         C185   1.443       .  S
O27         Ni33   1.949       .  S
O27          C48   1.273       .  A
O28        Ni435   1.906       .  S
O28          C37   1.263   1_554  A
O29         Ni33   1.923       .  S
O29         Ni51   1.906       .  S
O29         Ni45   1.918   1_554  S
O29          H52   0.966       .  S
C30          O47   1.272       .  A
C30          O39   1.275       .  A
C30         C190   1.416       .  S
O31         Ni50   1.901       .  S
O31         C421   1.268       .  A
O32         Ni50   1.917       .  S
O32          C34   1.271       .  A
Ni33         O36   1.938       .  S
Ni33         O38   1.906       .  S
C34          O44   1.274       .  A
C34         C180   1.443       .  S
O35         Ni51   1.914       .  S
O35          C41   1.274       .  A
O36          C41   1.280       .  A
C37         O415   1.268       .  A
C37         C175   1.436       .  S
O38          C40   1.265       .  A
O39         Ni50   1.920       .  S
C40          O46   1.266       .  A
C40         C178   1.428       .  S
C41         C556   1.440   1_455  S
H42          O43   0.966       .  S
O43         Ni51   1.921   1_556  S
O43         Ni45   1.879       .  S
O43         Ni50   1.905       .  S
O44         Ni45   1.934       .  S
Ni45         O49   1.890   1_556  S
Ni45         O47   1.900       .  S
O46         Ni51   1.917       .  S
C48          O49   1.262       .  A
C48         C174   1.443       .  S
Ni51        O412   1.906       .  S
O53         Ni59   1.951       .  S
O53          C74   1.274       .  A
O54         Ni77   1.891       .  S
O54          C63   1.264       .  A
O55         Ni59   1.923       .  S
O55         Ni77   1.905       .  S
O55         Ni71   1.912       .  S
O55          H78   0.966       .  S
C56          O73   1.270       .  A
C56          O65   1.275       .  A
C56         C169   1.416       .  S
O57         Ni76   1.928       .  S
O57          C63   1.272       .  A
O58         Ni76   1.916       .  S
O58          C60   1.270       .  A
Ni59         O62   1.941       .  S
Ni59         O64   1.911       .  S
C60          O70   1.275       .  A
C60         C179   1.443       .  S
O61         Ni77   1.915       .  S
O61          C67   1.273       .  A
O62          C67   1.280       .  A
C63         C184   1.430       .  S
O64          C66   1.266       .  A
O65         Ni76   1.925       .  S
C66          O72   1.267       .  A
C66         C168   1.434       .  S
C67         C165   1.443       .  S
H68          O69   0.966       .  S
O69         Ni77   1.901       .  S
O69         Ni71   1.886       .  S
O69         Ni76   1.906       .  S
O70         Ni71   1.938       .  S
Ni71         O75   1.892       .  S
Ni71         O73   1.894       .  S
O72         Ni77   1.920       .  S
C74          O75   1.263       .  A
C74         C186   1.443       .  S
O79         Ni85   1.953       .  S
O79         C100   1.275       .  A
O80        Ni103   1.894       .  S
O80          C89   1.263       .  A
O81         Ni85   1.928       .  S
O81        Ni103   1.912       .  S
O81         Ni97   1.911       .  S
O81         H104   0.966       .  S
C82          O99   1.269       .  A
C82          O91   1.274       .  A
C82         C160   1.428       .  S
O83        Ni102   1.932       .  S
O83          C89   1.270       .  A
O84        Ni102   1.916       .  S
O84          C86   1.270       .  A
Ni85         O88   1.941       .  S
Ni85         O90   1.913       .  S
C86          O96   1.272       .  A
C86         C171   1.441       .  S
O87        Ni103   1.912       .  S
O87          C93   1.272       .  A
O88          C93   1.278       .  A
C89         C163   1.432       .  S
O90          C92   1.268       .  A
O91        Ni102   1.930       .  S
C92          O98   1.267       .  A
C92         C167   1.434       .  S
C93         C181   1.444       .  S
H94          O95   0.966       .  S
O95        Ni103   1.905       .  S
O95         Ni97   1.899       .  S
O95        Ni102   1.921       .  S
O96         Ni97   1.933       .  S
Ni97        O101   1.897       .  S
Ni97         O99   1.901       .  S
O98        Ni103   1.918       .  S
C100        O101   1.263       .  A
C100        C161   1.445       .  S
O105       Ni111   1.953       .  S
O105        C126   1.275       .  A
O106       Ni129   1.894       .  S
O106        C115   1.263       .  A
O107       Ni111   1.927       .  S
O107       Ni129   1.912       .  S
O107       Ni123   1.911       .  S
O107        H130   0.966       .  S
C108        O125   1.269       .  A
C108        O117   1.274       .  A
C108        C177   1.428       .  S
O109       Ni128   1.932       .  S
O109        C115   1.270       .  A
O110       Ni128   1.916       .  S
O110        C112   1.270       .  A
Ni111       O114   1.941       .  S
Ni111       O116   1.913       .  S
C112        O122   1.272       .  A
C112        C158   1.441       .  S
O113       Ni129   1.912       .  S
O113        C119   1.272       .  A
O114        C119   1.278       .  A
C115        C164   1.432       .  S
O116        C118   1.268       .  A
O117       Ni128   1.930       .  S
C118        O124   1.267       .  A
C118        C191   1.434       .  S
C119        C166   1.444       .  S
H120        O121   0.966       .  S
O121       Ni129   1.905       .  S
O121       Ni123   1.899       .  S
O121       Ni128   1.921       .  S
O122       Ni123   1.933       .  S
Ni123       O127   1.897       .  S
Ni123       O125   1.901       .  S
O124       Ni129   1.918       .  S
C126        O127   1.263       .  A
C126        C162   1.445       .  S
O131       Ni137   1.949       .  S
O131        C152   1.273       .  A
O132       Ni155   1.906       .  S
O132        C141   1.263   1_554  A
O133       Ni137   1.923       .  S
O133       Ni155   1.906       .  S
O133       Ni149   1.918   1_554  S
O133        H156   0.966       .  S
C134        O151   1.272       .  A
C134        O143   1.275       .  A
C134        C170   1.416       .  S
O135       Ni154   1.901       .  S
O135        C141   1.268       .  A
O136       Ni154   1.917       .  S
O136        C138   1.271       .  A
Ni137       O140   1.938       .  S
Ni137       O142   1.906       .  S
C138        O148   1.274       .  A
C138        C188   1.443       .  S
O139       Ni155   1.914       .  S
O139        C145   1.274       .  A
O140        C145   1.280       .  A
C141        C176   1.436       .  S
O142        C144   1.265       .  A
O143       Ni154   1.920       .  S
C144        O150   1.266       .  A
C144        C159   1.428       .  S
C145        C157   1.440       .  S
H146        O147   0.966       .  S
O147       Ni155   1.921   1_556  S
O147       Ni149   1.879       .  S
O147       Ni154   1.905       .  S
O148       Ni149   1.934       .  S
Ni149       O153   1.890   1_556  S
Ni149       O151   1.899       .  S
O150       Ni155   1.917       .  S
C152        O153   1.262       .  A
C152        C173   1.443       .  S
C157        C542   1.209       .  T
C158        C541   1.209   1_455  T
C159        C160   1.202       .  T
C161        C546   1.212       .  T
C162        C545   1.212   1_455  T
C163        C356   1.204   1_545  T
C164        C355   1.204       .  T
C165        C358   1.211   1_545  T
C166        C357   1.211       .  T
C167        C168   1.206       .  T
C169        C170   1.195       .  T
C171        C172   1.209       .  T
C172        C425   1.440       .  S
C173        C174   1.211       .  T
C175        C176   1.207       .  T
C177        C178   1.202       .  T
C179        C180   1.211       .  T
C181        C374   1.211   1_545  T
C182        C373   1.211       .  T
C183        C203   1.430       .  S
C183        C184   1.203   1_565  T
C185        C186   1.211       .  T
C187        C188   1.211       .  T
C189        C190   1.195       .  T
C191        C192   1.206       .  T
O193       Ni199   1.950       .  S
O193        C214   1.273       .  A
O194       Ni217   1.891       .  S
O194        C203   1.264       .  A
O195       Ni199   1.923       .  S
O195       Ni217   1.905       .  S
O195       Ni211   1.912       .  S
O195        H218   0.966       .  S
C196        O213   1.270       .  A
C196        O205   1.275       .  A
C196        C381   1.416       .  S
O197       Ni216   1.928       .  S
O197        C203   1.271       .  A
O198       Ni216   1.916       .  S
O198        C200   1.270       .  A
Ni199       O202   1.941       .  S
Ni199       O204   1.911       .  S
C200        O210   1.275       .  A
C200        C379   1.443       .  S
O201       Ni217   1.915       .  S
O201        C207   1.273       .  A
O202        C207   1.280       .  A
O204        C206   1.266       .  A
O205       Ni216   1.925       .  S
C206        O212   1.267       .  A
C206        C384   1.434       .  S
C207        C374   1.443       .  S
H208        O209   0.966       .  S
O209       Ni217   1.901       .  S
O209       Ni211   1.886       .  S
O209       Ni216   1.906       .  S
O210       Ni211   1.938       .  S
Ni211       O215   1.892       .  S
Ni211       O213   1.894       .  S
O212       Ni217   1.920       .  S
C214        O215   1.263       .  A
C214        C377   1.443       .  S
O219       Ni225   1.949       .  S
O219        C240   1.273       .  A
O220       Ni627   1.906       .  S
O220        C229   1.263   1_554  A
O221       Ni225   1.923       .  S
O221       Ni243   1.906       .  S
O221       Ni237   1.918   1_554  S
O221        H244   0.966       .  S
C222        O239   1.272       .  A
C222        O231   1.275       .  A
C222        C382   1.416       .  S
O223       Ni242   1.901       .  S
O223        C613   1.268       .  A
O224       Ni242   1.917       .  S
O224        C226   1.271       .  A
Ni225       O228   1.938       .  S
Ni225       O230   1.906       .  S
C226        O236   1.274       .  A
C226        C372   1.443       .  S
O227       Ni243   1.914       .  S
O227        C233   1.274       .  A
O228        C233   1.280       .  A
C229        O607   1.268       .  A
C229        C367   1.436       .  S
O230        C232   1.265       .  A
O231       Ni242   1.920       .  S
C232        O238   1.266       .  A
C232        C370   1.428       .  S
C233        C748   1.440   1_455  S
H234        O235   0.966       .  S
O235       Ni243   1.921   1_556  S
O235       Ni237   1.879       .  S
O235       Ni242   1.905       .  S
O236       Ni237   1.934       .  S
Ni237       O241   1.890   1_556  S
Ni237       O239   1.900       .  S
O238       Ni243   1.917       .  S
C240        O241   1.262       .  A
C240        C366   1.443       .  S
Ni243       O604   1.906       .  S
O245       Ni251   1.951       .  S
O245        C266   1.274       .  A
O246       Ni269   1.891       .  S
O246        C255   1.264       .  A
O247       Ni251   1.923       .  S
O247       Ni269   1.905       .  S
O247       Ni263   1.912       .  S
O247        H270   0.966       .  S
C248        O265   1.270       .  A
C248        O257   1.275       .  A
C248        C361   1.416       .  S
O249       Ni268   1.928       .  S
O249        C255   1.272       .  A
O250       Ni268   1.916       .  S
O250        C252   1.270       .  A
Ni251       O254   1.941       .  S
Ni251       O256   1.911       .  S
C252        O262   1.275       .  A
C252        C371   1.443       .  S
O253       Ni269   1.915       .  S
O253        C259   1.273       .  A
O254        C259   1.280       .  A
C255        C376   1.430       .  S
O256        C258   1.266       .  A
O257       Ni268   1.925       .  S
C258        O264   1.267       .  A
C258        C360   1.434       .  S
C259        C357   1.443       .  S
H260        O261   0.966       .  S
O261       Ni269   1.901       .  S
O261       Ni263   1.886       .  S
O261       Ni268   1.906       .  S
O262       Ni263   1.938       .  S
Ni263       O267   1.892       .  S
Ni263       O265   1.894       .  S
O264       Ni269   1.920       .  S
C266        O267   1.263       .  A
C266        C378   1.443       .  S
O271       Ni277   1.953       .  S
O271        C292   1.275       .  A
O272       Ni295   1.894       .  S
O272        C281   1.263       .  A
O273       Ni277   1.928       .  S
O273       Ni295   1.912       .  S
O273       Ni289   1.911       .  S
O273        H296   0.966       .  S
C274        O291   1.269       .  A
C274        O283   1.274       .  A
C274        C352   1.428       .  S
O275       Ni294   1.932       .  S
O275        C281   1.270       .  A
O276       Ni294   1.916       .  S
O276        C278   1.270       .  A
Ni277       O280   1.941       .  S
Ni277       O282   1.913       .  S
C278        O288   1.272       .  A
C278        C363   1.441       .  S
O279       Ni295   1.912       .  S
O279        C285   1.272       .  A
O280        C285   1.278       .  A
C281        C355   1.432       .  S
O282        C284   1.268       .  A
O283       Ni294   1.930       .  S
C284        O290   1.267       .  A
C284        C359   1.434       .  S
C285        C373   1.444       .  S
H286        O287   0.966       .  S
O287       Ni295   1.905       .  S
O287       Ni289   1.899       .  S
O287       Ni294   1.921       .  S
O288       Ni289   1.933       .  S
Ni289       O293   1.897       .  S
Ni289       O291   1.901       .  S
O290       Ni295   1.918       .  S
C292        O293   1.263       .  A
C292        C353   1.445       .  S
O297       Ni303   1.953       .  S
O297        C318   1.275       .  A
O298       Ni321   1.894       .  S
O298        C307   1.263       .  A
O299       Ni303   1.927       .  S
O299       Ni321   1.912       .  S
O299       Ni315   1.911       .  S
O299        H322   0.966       .  S
C300        O317   1.269       .  A
C300        O309   1.274       .  A
C300        C369   1.428       .  S
O301       Ni320   1.932       .  S
O301        C307   1.270       .  A
O302       Ni320   1.916       .  S
O302        C304   1.270       .  A
Ni303       O306   1.941       .  S
Ni303       O308   1.913       .  S
C304        O314   1.272       .  A
C304        C350   1.441       .  S
O305       Ni321   1.912       .  S
O305        C311   1.272       .  A
O306        C311   1.278       .  A
C307        C356   1.432       .  S
O308        C310   1.268       .  A
O309       Ni320   1.930       .  S
C310        O316   1.267       .  A
C310        C383   1.434       .  S
C311        C358   1.444       .  S
H312        O313   0.966       .  S
O313       Ni321   1.905       .  S
O313       Ni315   1.899       .  S
O313       Ni320   1.921       .  S
O314       Ni315   1.933       .  S
Ni315       O319   1.897       .  S
Ni315       O317   1.901       .  S
O316       Ni321   1.918       .  S
C318        O319   1.263       .  A
C318        C354   1.445       .  S
O323       Ni329   1.949       .  S
O323        C344   1.273       .  A
O324       Ni347   1.906       .  S
O324        C333   1.263   1_554  A
O325       Ni329   1.923       .  S
O325       Ni347   1.906       .  S
O325       Ni341   1.918   1_554  S
O325        H348   0.966       .  S
C326        O343   1.272       .  A
C326        O335   1.275       .  A
C326        C362   1.416       .  S
O327       Ni346   1.901       .  S
O327        C333   1.268       .  A
O328       Ni346   1.917       .  S
O328        C330   1.271       .  A
Ni329       O332   1.938       .  S
Ni329       O334   1.906       .  S
C330        O340   1.274       .  A
C330        C380   1.443       .  S
O331       Ni347   1.914       .  S
O331        C337   1.274       .  A
O332        C337   1.280       .  A
C333        C368   1.436       .  S
O334        C336   1.265       .  A
O335       Ni346   1.920       .  S
C336        O342   1.266       .  A
C336        C351   1.428       .  S
C337        C349   1.440       .  S
H338        O339   0.966       .  S
O339       Ni347   1.921   1_556  S
O339       Ni341   1.879       .  S
O339       Ni346   1.905       .  S
O340       Ni341   1.934       .  S
Ni341       O345   1.890   1_556  S
Ni341       O343   1.899       .  S
O342       Ni347   1.917       .  S
C344        O345   1.262       .  A
C344        C365   1.443       .  S
C349        C734   1.209       .  T
C350        C733   1.209   1_455  T
C351        C352   1.202       .  T
C353        C738   1.212       .  T
C354        C737   1.212   1_455  T
C359        C360   1.206       .  T
C361        C362   1.195       .  T
C363        C364   1.209       .  T
C364        C617   1.440       .  S
C365        C366   1.211       .  T
C367        C368   1.207       .  T
C369        C370   1.202       .  T
C371        C372   1.211       .  T
C375        C376   1.203       .  T
C377        C378   1.211       .  T
C379        C380   1.211       .  T
C381        C382   1.195       .  T
C383        C384   1.206       .  T
O385       Ni391   1.950       .  S
O385        C406   1.273       .  A
O386       Ni409   1.891       .  S
O386        C395   1.264       .  A
O387       Ni391   1.923       .  S
O387       Ni409   1.905       .  S
O387       Ni403   1.912       .  S
O387        H410   0.966       .  S
C388        O405   1.270       .  A
C388        O397   1.275       .  A
C388        C573   1.416       .  S
O389       Ni408   1.928       .  S
O389        C395   1.271       .  A
O390       Ni408   1.916       .  S
O390        C392   1.270       .  A
Ni391       O394   1.941       .  S
Ni391       O396   1.911       .  S
C392        O402   1.275       .  A
C392        C571   1.443       .  S
O393       Ni409   1.915       .  S
O393        C399   1.273       .  A
O394        C399   1.280       .  A
C395        C759   1.430       .  S
O396        C398   1.266       .  A
O397       Ni408   1.925       .  S
C398        O404   1.267       .  A
C398        C576   1.434       .  S
C399        C566   1.443       .  S
H400        O401   0.966       .  S
O401       Ni409   1.901       .  S
O401       Ni403   1.886       .  S
O401       Ni408   1.906       .  S
O402       Ni403   1.938       .  S
Ni403       O407   1.892       .  S
Ni403       O405   1.894       .  S
O404       Ni409   1.920       .  S
C406        O407   1.263       .  A
C406        C569   1.443       .  S
O411       Ni417   1.949       .  S
O411        C432   1.273       .  A
O412        C421   1.263   1_554  A
O413       Ni417   1.923       .  S
O413       Ni435   1.906       .  S
O413       Ni429   1.918   1_554  S
O413        H436   0.966       .  S
C414        O431   1.272       .  A
C414        O423   1.275       .  A
C414        C574   1.416       .  S
O415       Ni434   1.901       .  S
O416       Ni434   1.917       .  S
O416        C418   1.271       .  A
Ni417       O420   1.938       .  S
Ni417       O422   1.906       .  S
C418        O428   1.274       .  A
C418        C564   1.443       .  S
O419       Ni435   1.914       .  S
O419        C425   1.274       .  A
O420        C425   1.280       .  A
C421        C559   1.436   1_455  S
O422        C424   1.265       .  A
O423       Ni434   1.920       .  S
C424        O430   1.266       .  A
C424        C562   1.428       .  S
H426        O427   0.966       .  S
O427       Ni435   1.921   1_556  S
O427       Ni429   1.879       .  S
O427       Ni434   1.905       .  S
O428       Ni429   1.934       .  S
Ni429       O433   1.890   1_556  S
Ni429       O431   1.900       .  S
O430       Ni435   1.917       .  S
C432        O433   1.262       .  A
C432        C558   1.443       .  S
O437       Ni443   1.951       .  S
O437        C458   1.274       .  A
O438       Ni461   1.891       .  S
O438        C447   1.264       .  A
O439       Ni443   1.923       .  S
O439       Ni461   1.905       .  S
O439       Ni455   1.912       .  S
O439        H462   0.966       .  S
C440        O457   1.270       .  A
C440        O449   1.275       .  A
C440        C553   1.416       .  S
O441       Ni460   1.928       .  S
O441        C447   1.272       .  A
O442       Ni460   1.916       .  S
O442        C444   1.270       .  A
Ni443       O446   1.941       .  S
Ni443       O448   1.911       .  S
C444        O454   1.275       .  A
C444        C563   1.443       .  S
O445       Ni461   1.915       .  S
O445        C451   1.273       .  A
O446        C451   1.280       .  A
C447        C568   1.430       .  S
O448        C450   1.266       .  A
O449       Ni460   1.925       .  S
C450        O456   1.267       .  A
C450        C552   1.434       .  S
C451        C549   1.443       .  S
H452        O453   0.966       .  S
O453       Ni461   1.901       .  S
O453       Ni455   1.886       .  S
O453       Ni460   1.906       .  S
O454       Ni455   1.938       .  S
Ni455       O459   1.892       .  S
Ni455       O457   1.894       .  S
O456       Ni461   1.920       .  S
C458        O459   1.263       .  A
C458        C570   1.443       .  S
O463       Ni469   1.953       .  S
O463        C484   1.275       .  A
O464       Ni487   1.894       .  S
O464        C473   1.263       .  A
O465       Ni469   1.928       .  S
O465       Ni487   1.912       .  S
O465       Ni481   1.911       .  S
O465        H488   0.966       .  S
C466        O483   1.269       .  A
C466        O475   1.274       .  A
C466        C544   1.428       .  S
O467       Ni486   1.932       .  S
O467        C473   1.270       .  A
O468       Ni486   1.916       .  S
O468        C470   1.270       .  A
Ni469       O472   1.941       .  S
Ni469       O474   1.913       .  S
C470        O480   1.272       .  A
C470        C555   1.441       .  S
O471       Ni487   1.912       .  S
O471        C477   1.272       .  A
O472        C477   1.278       .  A
C473        C547   1.432       .  S
O474        C476   1.268       .  A
O475       Ni486   1.930       .  S
C476        O482   1.267       .  A
C476        C551   1.434       .  S
C477        C565   1.444       .  S
H478        O479   0.966       .  S
O479       Ni487   1.905       .  S
O479       Ni481   1.899       .  S
O479       Ni486   1.921       .  S
O480       Ni481   1.933       .  S
Ni481       O485   1.897       .  S
Ni481       O483   1.901       .  S
O482       Ni487   1.918       .  S
C484        O485   1.263       .  A
C484        C545   1.445       .  S
O489       Ni495   1.953       .  S
O489        C510   1.275       .  A
O490       Ni513   1.894       .  S
O490        C499   1.263       .  A
O491       Ni495   1.927       .  S
O491       Ni513   1.912       .  S
O491       Ni507   1.911       .  S
O491        H514   0.966       .  S
C492        O509   1.269       .  A
C492        O501   1.274       .  A
C492        C561   1.428       .  S
O493       Ni512   1.932       .  S
O493        C499   1.270       .  A
O494       Ni512   1.916       .  S
O494        C496   1.270       .  A
Ni495       O498   1.941       .  S
Ni495       O500   1.913       .  S
C496        O506   1.272       .  A
C496        C542   1.441       .  S
O497       Ni513   1.912       .  S
O497        C503   1.272       .  A
O498        C503   1.278       .  A
C499        C548   1.432       .  S
O500        C502   1.268       .  A
O501       Ni512   1.930       .  S
C502        O508   1.267       .  A
C502        C575   1.434       .  S
C503        C550   1.444       .  S
H504        O505   0.966       .  S
O505       Ni513   1.905       .  S
O505       Ni507   1.899       .  S
O505       Ni512   1.921       .  S
O506       Ni507   1.933       .  S
Ni507       O511   1.897       .  S
Ni507       O509   1.901       .  S
O508       Ni513   1.918       .  S
C510        O511   1.263       .  A
C510        C546   1.445       .  S
O515       Ni521   1.949       .  S
O515        C536   1.273       .  A
O516       Ni539   1.906       .  S
O516        C525   1.263   1_554  A
O517       Ni521   1.923       .  S
O517       Ni539   1.906       .  S
O517       Ni533   1.918   1_554  S
O517        H540   0.966       .  S
C518        O535   1.272       .  A
C518        O527   1.275       .  A
C518        C554   1.416       .  S
O519       Ni538   1.901       .  S
O519        C525   1.268       .  A
O520       Ni538   1.917       .  S
O520        C522   1.271       .  A
Ni521       O524   1.938       .  S
Ni521       O526   1.906       .  S
C522        O532   1.274       .  A
C522        C572   1.443       .  S
O523       Ni539   1.914       .  S
O523        C529   1.274       .  A
O524        C529   1.280       .  A
C525        C560   1.436       .  S
O526        C528   1.265       .  A
O527       Ni538   1.920       .  S
C528        O534   1.266       .  A
C528        C543   1.428       .  S
C529        C541   1.440       .  S
H530        O531   0.966       .  S
O531       Ni539   1.921   1_556  S
O531       Ni533   1.879       .  S
O531       Ni538   1.905       .  S
O532       Ni533   1.934       .  S
Ni533       O537   1.890   1_556  S
Ni533       O535   1.899       .  S
O534       Ni539   1.917       .  S
C536        O537   1.262       .  A
C536        C557   1.443       .  S
C543        C544   1.202       .  T
C547        C740   1.204   1_545  T
C548        C739   1.204       .  T
C549        C742   1.211   1_545  T
C550        C741   1.211       .  T
C551        C552   1.206       .  T
C553        C554   1.195       .  T
C555        C556   1.209       .  T
C557        C558   1.211       .  T
C559        C560   1.207       .  T
C561        C562   1.202       .  T
C563        C564   1.211       .  T
C565        C758   1.211   1_545  T
C566        C757   1.211       .  T
C567        C587   1.430       .  S
C567        C568   1.203   1_565  T
C569        C570   1.211       .  T
C571        C572   1.211       .  T
C573        C574   1.195       .  T
C575        C576   1.206       .  T
O577       Ni583   1.950       .  S
O577        C598   1.273       .  A
O578       Ni601   1.891       .  S
O578        C587   1.264       .  A
O579       Ni583   1.923       .  S
O579       Ni601   1.905       .  S
O579       Ni595   1.912       .  S
O579        H602   0.966       .  S
C580        O597   1.270       .  A
C580        O589   1.275       .  A
C580        C765   1.416       .  S
O581       Ni600   1.928       .  S
O581        C587   1.271       .  A
O582       Ni600   1.916       .  S
O582        C584   1.270       .  A
Ni583       O586   1.941       .  S
Ni583       O588   1.911       .  S
C584        O594   1.275       .  A
C584        C763   1.443       .  S
O585       Ni601   1.915       .  S
O585        C591   1.273       .  A
O586        C591   1.280       .  A
O588        C590   1.266       .  A
O589       Ni600   1.925       .  S
C590        O596   1.267       .  A
C590        C768   1.434       .  S
C591        C758   1.443       .  S
H592        O593   0.966       .  S
O593       Ni601   1.901       .  S
O593       Ni595   1.886       .  S
O593       Ni600   1.906       .  S
O594       Ni595   1.938       .  S
Ni595       O599   1.892       .  S
Ni595       O597   1.894       .  S
O596       Ni601   1.920       .  S
C598        O599   1.263       .  A
C598        C761   1.443       .  S
O603       Ni609   1.949       .  S
O603        C624   1.273       .  A
O604        C613   1.263   1_554  A
O605       Ni609   1.923       .  S
O605       Ni627   1.906       .  S
O605       Ni621   1.918   1_554  S
O605        H628   0.966       .  S
C606        O623   1.272       .  A
C606        O615   1.275       .  A
C606        C766   1.416       .  S
O607       Ni626   1.901       .  S
O608       Ni626   1.917       .  S
O608        C610   1.271       .  A
Ni609       O612   1.938       .  S
Ni609       O614   1.906       .  S
C610        O620   1.274       .  A
C610        C756   1.443       .  S
O611       Ni627   1.914       .  S
O611        C617   1.274       .  A
O612        C617   1.280       .  A
C613        C751   1.436   1_455  S
O614        C616   1.265       .  A
O615       Ni626   1.920       .  S
C616        O622   1.266       .  A
C616        C754   1.428       .  S
H618        O619   0.966       .  S
O619       Ni627   1.921   1_556  S
O619       Ni621   1.879       .  S
O619       Ni626   1.905       .  S
O620       Ni621   1.934       .  S
Ni621       O625   1.890   1_556  S
Ni621       O623   1.900       .  S
O622       Ni627   1.917       .  S
C624        O625   1.262       .  A
C624        C750   1.443       .  S
O629       Ni635   1.951       .  S
O629        C650   1.274       .  A
O630       Ni653   1.891       .  S
O630        C639   1.264       .  A
O631       Ni635   1.923       .  S
O631       Ni653   1.905       .  S
O631       Ni647   1.912       .  S
O631        H654   0.966       .  S
C632        O649   1.270       .  A
C632        O641   1.275       .  A
C632        C745   1.416       .  S
O633       Ni652   1.928       .  S
O633        C639   1.272       .  A
O634       Ni652   1.916       .  S
O634        C636   1.270       .  A
Ni635       O638   1.941       .  S
Ni635       O640   1.911       .  S
C636        O646   1.275       .  A
C636        C755   1.443       .  S
O637       Ni653   1.915       .  S
O637        C643   1.273       .  A
O638        C643   1.280       .  A
C639        C760   1.430       .  S
O640        C642   1.266       .  A
O641       Ni652   1.925       .  S
C642        O648   1.267       .  A
C642        C744   1.434       .  S
C643        C741   1.443       .  S
H644        O645   0.966       .  S
O645       Ni653   1.901       .  S
O645       Ni647   1.886       .  S
O645       Ni652   1.906       .  S
O646       Ni647   1.938       .  S
Ni647       O651   1.892       .  S
Ni647       O649   1.894       .  S
O648       Ni653   1.920       .  S
C650        O651   1.263       .  A
C650        C762   1.443       .  S
O655       Ni661   1.953       .  S
O655        C676   1.275       .  A
O656       Ni679   1.894       .  S
O656        C665   1.263       .  A
O657       Ni661   1.928       .  S
O657       Ni679   1.912       .  S
O657       Ni673   1.911       .  S
O657        H680   0.966       .  S
C658        O675   1.269       .  A
C658        O667   1.274       .  A
C658        C736   1.428       .  S
O659       Ni678   1.932       .  S
O659        C665   1.270       .  A
O660       Ni678   1.916       .  S
O660        C662   1.270       .  A
Ni661       O664   1.941       .  S
Ni661       O666   1.913       .  S
C662        O672   1.272       .  A
C662        C747   1.441       .  S
O663       Ni679   1.912       .  S
O663        C669   1.272       .  A
O664        C669   1.278       .  A
C665        C739   1.432       .  S
O666        C668   1.268       .  A
O667       Ni678   1.930       .  S
C668        O674   1.267       .  A
C668        C743   1.434       .  S
C669        C757   1.444       .  S
H670        O671   0.966       .  S
O671       Ni679   1.905       .  S
O671       Ni673   1.899       .  S
O671       Ni678   1.921       .  S
O672       Ni673   1.933       .  S
Ni673       O677   1.897       .  S
Ni673       O675   1.901       .  S
O674       Ni679   1.918       .  S
C676        O677   1.263       .  A
C676        C737   1.445       .  S
O681       Ni687   1.953       .  S
O681        C702   1.275       .  A
O682       Ni705   1.894       .  S
O682        C691   1.263       .  A
O683       Ni687   1.927       .  S
O683       Ni705   1.912       .  S
O683       Ni699   1.911       .  S
O683        H706   0.966       .  S
C684        O701   1.269       .  A
C684        O693   1.274       .  A
C684        C753   1.428       .  S
O685       Ni704   1.932       .  S
O685        C691   1.270       .  A
O686       Ni704   1.916       .  S
O686        C688   1.270       .  A
Ni687       O690   1.941       .  S
Ni687       O692   1.913       .  S
C688        O698   1.272       .  A
C688        C734   1.441       .  S
O689       Ni705   1.912       .  S
O689        C695   1.272       .  A
O690        C695   1.278       .  A
C691        C740   1.432       .  S
O692        C694   1.268       .  A
O693       Ni704   1.930       .  S
C694        O700   1.267       .  A
C694        C767   1.434       .  S
C695        C742   1.444       .  S
H696        O697   0.966       .  S
O697       Ni705   1.905       .  S
O697       Ni699   1.899       .  S
O697       Ni704   1.921       .  S
O698       Ni699   1.933       .  S
Ni699       O703   1.897       .  S
Ni699       O701   1.901       .  S
O700       Ni705   1.918       .  S
C702        O703   1.263       .  A
C702        C738   1.445       .  S
O707       Ni713   1.949       .  S
O707        C728   1.273       .  A
O708       Ni731   1.906       .  S
O708        C717   1.263   1_554  A
O709       Ni713   1.923       .  S
O709       Ni731   1.906       .  S
O709       Ni725   1.918   1_554  S
O709        H732   0.966       .  S
C710        O727   1.272       .  A
C710        O719   1.275       .  A
C710        C746   1.416       .  S
O711       Ni730   1.901       .  S
O711        C717   1.268       .  A
O712       Ni730   1.917       .  S
O712        C714   1.271       .  A
Ni713       O716   1.938       .  S
Ni713       O718   1.906       .  S
C714        O724   1.274       .  A
C714        C764   1.443       .  S
O715       Ni731   1.914       .  S
O715        C721   1.274       .  A
O716        C721   1.280       .  A
C717        C752   1.436       .  S
O718        C720   1.265       .  A
O719       Ni730   1.920       .  S
C720        O726   1.266       .  A
C720        C735   1.428       .  S
C721        C733   1.440       .  S
H722        O723   0.966       .  S
O723       Ni731   1.921   1_556  S
O723       Ni725   1.879       .  S
O723       Ni730   1.905       .  S
O724       Ni725   1.934       .  S
Ni725       O729   1.890   1_556  S
Ni725       O727   1.899       .  S
O726       Ni731   1.917       .  S
C728        O729   1.262       .  A
C728        C749   1.443       .  S
C735        C736   1.202       .  T
C743        C744   1.206       .  T
C745        C746   1.195       .  T
C747        C748   1.209       .  T
C749        C750   1.211       .  T
C751        C752   1.207       .  T
C753        C754   1.202       .  T
C755        C756   1.211       .  T
C759        C760   1.203       .  T
C761        C762   1.211       .  T
C763        C764   1.211       .  T
C765        C766   1.195       .  T
C767        C768   1.206       .  T
