geometry optimzed in LAMMPS
_audit_creation_date              2020-11-30 
_audit_creation_method            'lammps2cif' 
_symmetry_space_group_name_H-M    'P1' 
_symmetry_Int_Tables_number       1 
_symmetry_cell_setting            triclinic 
loop_ 
_symmetry_equiv_pos_as_xyz 
  x,y,z 
_cell_length_a                    36.61548195 
_cell_length_b                    36.615159459520584 
_cell_length_c                    27.465018353269766 
_cell_angle_alpha                 89.9924196130448 
_cell_angle_beta                  90.00621871057916 
_cell_angle_gamma                 119.99953219840783 
loop_ 
_atom_site_label 
_atom_site_type_symbol 
_atom_site_fract_x 
_atom_site_fract_y 
_atom_site_fract_z 
_atom_site_charge 
O1          O  0.46532378  0.43094524  0.33339851    -0.68600
O2          O  0.06913186  0.03467582  0.33334665    -0.68800
O3          O  0.01721714  0.48287410  0.40248351    -0.68700
O4          O  0.01716720  0.48273366  0.26418166    -0.68700
O5          O  0.48305027  0.01712929  0.26409798    -0.68600
O6          O  0.48287964  0.01710799  0.40239702    -0.68700
O7          O  0.03482655  0.06897687  0.33330452    -0.68600
O8          O  0.43102802  0.46525579  0.33326109    -0.68800
V9          V  0.01652913  0.48347941  0.33333180     1.35200
V10         V  0.48362871  0.01644544  0.33324774     1.35200
C11         C  0.43066780  0.43059649  0.33333850     0.80600
C12         C  0.06948469  0.06933350  0.33333012     0.80700
C13         C  0.00002664  0.49999741  0.42579706     0.80600
C14         C  0.00002988  0.49988069  0.24079982     0.80500
O15         O  0.06907483  0.28481316  0.33323385    -0.68600
O16         O  0.46538781  0.18103378  0.33331826    -0.68800
O17         O  0.01718926  0.23290354  0.26412851    -0.68700
O18         O  0.01726234  0.23293941  0.40243960    -0.68700
O19         O  0.48286466  0.26714605  0.40245030    -0.68600
O20         O  0.48289279  0.26721222  0.26414171    -0.68700
O21         O  0.43103812  0.21529015  0.33326440    -0.68600
O22         O  0.03473085  0.31907490  0.33331540    -0.68800
V23         V  0.01656203  0.23358988  0.33328174     1.35200
V24         V  0.48355031  0.26651623  0.33329423     1.35200
C25         C  0.06940393  0.31945870  0.33325727     0.80600
C26         C  0.43071428  0.18064666  0.33328855     0.80700
C27         C  0.00003269  0.25005589  0.24079223     0.80600
C28         C  0.00005475  0.25002882  0.42579080     0.80500
O29         O  0.28484785  0.06900058  0.33331056    -0.68600
O30         O  0.18100115  0.46537877  0.33322655    -0.68800
O31         O  0.23295425  0.01711611  0.40243400    -0.68700
O32         O  0.23302037  0.01715393  0.26413168    -0.68700
O33         O  0.26717343  0.48299492  0.26412111    -0.68600
O34         O  0.26718284  0.48290967  0.40242771    -0.68700
O35         O  0.21530644  0.43107830  0.33324377    -0.68600
O36         O  0.31915923  0.03470583  0.33328553    -0.68800
V37         V  0.23365227  0.01646412  0.33328388     1.35200
V38         V  0.26650802  0.48361735  0.33327420     1.35200
C39         C  0.31950886  0.06936187  0.33329382     0.80600
C40         C  0.18064599  0.43072044  0.33321590     0.80700
C41         C  0.25012391  0.99999153  0.42579703     0.80600
C42         C  0.25017192  0.00000062  0.24079968     0.80500
O43         O  0.21535581  0.18098103  0.33336173    -0.68600
O44         O  0.31905932  0.28472941  0.33330679    -0.68800
O45         O  0.26721721  0.23288822  0.40248590    -0.68700
O46         O  0.26719575  0.23282866  0.26417768    -0.68700
O47         O  0.23292246  0.26716032  0.26414226    -0.68600
O48         O  0.23284231  0.26711831  0.40245199    -0.68700
O49         O  0.28474096  0.31901751  0.33333837    -0.68600
O50         O  0.18102684  0.21525842  0.33325805    -0.68800
V51         V  0.26653914  0.23352367  0.33333181     1.35200
V52         V  0.23354959  0.26647267  0.33329766     1.35200
C53         C  0.18069026  0.18060846  0.33331192     0.80600
C54         C  0.31940407  0.31938130  0.33332916     0.80700
C55         C  0.25002822  0.25000724  0.42581309     0.80600
C56         C  0.25006280  0.24999196  0.24081575     0.80500
O57         O  0.46540379  0.03432595  0.99990243    -0.68600
O58         O  0.06913410  0.03432616  0.99998652    -0.68800
O59         O  0.01727008  0.03428792  0.93078574    -0.68700
O60         O  0.01726577  0.03434035  0.06910576    -0.68700
O61         O  0.48288046  0.46556792  0.06906350    -0.68600
O62         O  0.48281174  0.46576195  0.93075351    -0.68700
O63         O  0.03471640  0.46566577  0.99980203    -0.68600
O64         O  0.43097784  0.46566347  0.00000736    -0.68800
V65         V  0.01660036  0.03298689  0.99994583     1.35200
V66         V  0.48351370  0.46699800  0.99990845     1.35200
C67         C  0.43062179  0.49996668  0.00005344     0.80600
C68         C  0.06937429  0.49996960  0.99987591     0.80700
C69         C  0.00008237  0.99997273  0.90746653     0.80600
C70         C  0.00016709  0.00004131  0.09246419     0.80500
O71         O  0.01720076  0.28429664  0.93080574    -0.68600
O72         O  0.01713134  0.28431992  0.06911019    -0.68800
O73         O  0.06903390  0.28430409  0.00002281    -0.68700
O74         O  0.46529979  0.28431022  0.99989713    -0.68700
O75         O  0.43099556  0.21570436  0.99998685    -0.68600
O76         O  0.03472796  0.21569836  0.99997781    -0.68700
O77         O  0.48287719  0.21571484  0.06913437    -0.68600
O78         O  0.48284560  0.21569181  0.93082710    -0.68800
V79         V  0.01649998  0.28297411  0.99995911     1.35200
V80         V  0.48352878  0.21703591  0.99998079     1.35200
C81         C  0.00002195  0.24999079  0.90747296     0.80600
C82         C  0.00000111  0.25002203  0.09246498     0.80700
C83         C  0.06938790  0.24999961  0.00001217     0.80600
C84         C  0.43064070  0.25000776  0.99993418     0.80500
O85         O  0.28472229  0.46568290  0.00003687    -0.68600
O86         O  0.18098871  0.46568406  0.00000603    -0.68800
O87         O  0.23282152  0.46561022  0.93086098    -0.68700
O88         O  0.23289387  0.46577072  0.06917835    -0.68700
O89         O  0.26733804  0.03440496  0.06910899    -0.68600
O90         O  0.26724583  0.03436780  0.93079207    -0.68700
O91         O  0.21542452  0.03438730  0.99998899    -0.68600
O92         O  0.31916579  0.03438877  0.99991047    -0.68800
V93         V  0.23352357  0.46701987  0.00001869     1.35200
V94         V  0.26662827  0.03305550  0.99995072     1.35200
C95         C  0.31951986  0.00008374  0.99987608     0.80600
C96         C  0.18076756  0.00008167  0.00005509     0.80700
C97         C  0.24999070  0.49989052  0.90746670     0.80600
C98         C  0.25002300  0.50010240  0.09246385     0.80500
O99         O  0.31903183  0.28430349  0.99999154    -0.68600
O100        O  0.21529212  0.28429615  0.99998199    -0.68800
O101        O  0.26715834  0.28428720  0.06913975    -0.68700
O102        O  0.26717021  0.28431492  0.93083364    -0.68700
O103        O  0.23282182  0.21571022  0.93081906    -0.68600
O104        O  0.23291070  0.21568244  0.06913155    -0.68700
O105        O  0.18099322  0.21569043  0.00003823    -0.68600
O106        O  0.28473334  0.21569766  0.99991364    -0.68800
V107        V  0.26649563  0.28296636  0.99998649     1.35200
V108        V  0.23353071  0.21702829  0.99997580     1.35200
C109        C  0.31939047  0.25000188  0.99994299     0.80600
C110        C  0.18063444  0.24999239  0.00002019     0.80700
C111        C  0.25004289  0.24998146  0.09247980     0.80600
C112        C  0.24999599  0.25001891  0.90748209     0.80500
O113        O  0.03425487  0.46524887  0.66674363    -0.68600
O114        O  0.03430418  0.06899775  0.66667276    -0.68800
O115        O  0.03430359  0.01709549  0.73578720    -0.68700
O116        O  0.03430789  0.01716439  0.59748139    -0.68700
O117        O  0.46564833  0.48278992  0.59747554    -0.68600
O118        O  0.46565534  0.48285647  0.73578751    -0.68700
O119        O  0.46569904  0.03469466  0.66673267    -0.68600
O120        O  0.46565000  0.43094642  0.66667817    -0.68800
V121        V  0.03297118  0.01646259  0.66663478     1.35200
V122        V  0.46698402  0.48348332  0.66663175     1.35200
C123        C  0.99995257  0.43058932  0.66672534     0.80600
C124        C  0.00000144  0.06935366  0.66672265     0.80700
C125        C  0.00000308  0.99990753  0.75913065     0.80600
C126        C  0.00000720  0.00005258  0.57413344     0.80500
O127        O  0.46566861  0.28467907  0.66666549    -0.68600
O128        O  0.46568788  0.18095054  0.66663287    -0.68800
O129        O  0.46568544  0.23279862  0.73579823    -0.68700
O130        O  0.46567818  0.23283183  0.59748215    -0.68700
O131        O  0.03428180  0.26709362  0.59748702    -0.68600
O132        O  0.03428950  0.26715942  0.73579413    -0.68700
O133        O  0.03429288  0.21526166  0.66669745    -0.68600
O134        O  0.03427340  0.31899142  0.66659835    -0.68800
V135        V  0.46701322  0.23348202  0.66664242     1.35200
V136        V  0.03295030  0.26645954  0.66664190     1.35200
C137        C  0.99996725  0.31934178  0.66664457     0.80600
C138        C  0.99999315  0.18059978  0.66668352     0.80700
C139        C  0.49999015  0.24998029  0.75913982     0.80600
C140        C  0.49998128  0.24996017  0.57413856     0.80500
O141        O  0.28426955  0.01716117  0.73580445    -0.68600
O142        O  0.28432983  0.01717357  0.59750078    -0.68800
O143        O  0.28429382  0.06903510  0.66664127    -0.68700
O144        O  0.28436187  0.46534464  0.66664899    -0.68700
O145        O  0.21575673  0.43103596  0.66654336    -0.68600
O146        O  0.21568889  0.03472980  0.66666359    -0.68700
O147        O  0.21577555  0.48296721  0.59746087    -0.68600
O148        O  0.21571973  0.48282432  0.73576432    -0.68800
V149        V  0.28296436  0.01650156  0.66665199     1.35200
V150        V  0.21708405  0.48356873  0.66661253     1.35200
C151        C  0.25001091  0.49997189  0.75913035     0.80600
C152        C  0.25008344  0.50009483  0.57413233     0.80700
C153        C  0.24999049  0.06939023  0.66666675     0.80600
C154        C  0.25006199  0.43068416  0.66658459     0.80500
O155        O  0.28436580  0.31907010  0.66657956    -0.68600
O156        O  0.28432718  0.21531090  0.66672026    -0.68800
O157        O  0.28434809  0.26714779  0.59749445    -0.68700
O158        O  0.28434159  0.26723204  0.73580719    -0.68700
O159        O  0.21573752  0.23290001  0.73579488    -0.68600
O160        O  0.21574398  0.23291404  0.59748956    -0.68700
O161        O  0.21572226  0.18102811  0.66664653    -0.68600
O162        O  0.21576069  0.28478473  0.66663706    -0.68800
V163        V  0.28301283  0.26652415  0.66665040     1.35200
V164        V  0.21707550  0.23357357  0.66664235     1.35200
C165        C  0.25006856  0.31943786  0.66659405     0.80600
C166        C  0.25001784  0.18065777  0.66669484     0.80700
C167        C  0.25004569  0.25002811  0.57414777     0.80600
C168        C  0.25003667  0.25006724  0.75914526     0.80500
C169        C  0.25007027  0.39152209  0.66656622    -0.10100
C170        C  0.25007757  0.35860895  0.66656942    -0.11600
C171        C  0.24999074  0.10855843  0.66669754    -0.10100
C172        C  0.25000181  0.14148162  0.66670908    -0.11600
C173        C  0.99995339  0.39142117  0.66672695    -0.10100
C174        C  0.99995893  0.35850614  0.66668907    -0.11600
C175        C  0.99999883  0.14143576  0.66672635    -0.10100
C176        C  0.00000074  0.10852003  0.66674524    -0.11600
C177        C  0.25002627  0.25005894  0.81136943    -0.10100
C178        C  0.25000573  0.25003622  0.85525790    -0.11600
C179        C  0.24997313  0.49985521  0.85524286    -0.10100
C180        C  0.24998517  0.49989707  0.81135418    -0.11600
C181        C  0.35855767  0.25000507  0.99992621    -0.10100
C182        C  0.39147525  0.25000802  0.99992325    -0.11600
C183        C  0.14146723  0.24999120  0.00003630    -0.10100
C184        C  0.10855243  0.24999537  0.00003354    -0.11600
C185        C  0.00001230  0.24998388  0.85525016    -0.10100
C186        C  0.49999855  0.24998130  0.81136271    -0.11600
C187        C  0.39145681  0.49996945  0.00007990    -0.10100
C188        C  0.35868111  0.00007198  0.99986396    -0.11600
C189        C  0.14159670  0.00006981  0.00006703    -0.10100
C190        C  0.10854231  0.49997323  0.99985009    -0.11600
C191        C  0.00001221  0.99990356  0.81135429    -0.10100
C192        C  0.00004709  0.99993809  0.85524285    -0.11600
C193        C  0.25004174  0.25002444  0.52192464    -0.10100
C194        C  0.25003038  0.25001859  0.47803612    -0.11600
C195        C  0.25006628  0.24998258  0.18859190    -0.10100
C196        C  0.25005828  0.24997631  0.14470347    -0.11600
C197        C  0.25010541  0.00000036  0.47802090    -0.10100
C198        C  0.25008753  0.50007434  0.52190886    -0.11600
C199        C  0.25003450  0.50016944  0.14468761    -0.10100
C200        C  0.25004536  0.50020526  0.18857560    -0.11600
C201        C  0.00002372  0.24998920  0.47801911    -0.10100
C202        C  0.99999027  0.24996236  0.52190999    -0.11600
C203        C  0.35866778  0.10853229  0.33328510    -0.10100
C204        C  0.39156908  0.14146257  0.33328362    -0.11600
C205        C  0.10855895  0.35863847  0.33321490    -0.10100
C206        C  0.14147730  0.39155419  0.33319493    -0.11600
C207        C  0.99999974  0.25003388  0.14468531    -0.10100
C208        C  0.00001136  0.25004723  0.18857172    -0.11600
C209        C  0.00002148  0.00003718  0.47802139    -0.10100
C210        C  0.00001126  0.00006229  0.52190952    -0.11600
C211        C  0.35856650  0.35854381  0.33334413    -0.10100
C212        C  0.39149662  0.39144241  0.33334963    -0.11600
C213        C  0.10864256  0.10850129  0.33333129    -0.10100
C214        C  0.14154134  0.14143200  0.33332157    -0.10400
C215        C  0.00023607  0.00003644  0.14468805    -0.10100
C216        C  0.00025500  0.99998986  0.18857645    -0.11600
O217        O  0.46539110  0.93093734  0.33336033    -0.68600
O218        O  0.06906656  0.53468931  0.33326839    -0.68800
O219        O  0.01723094  0.98285440  0.40251001    -0.68700
O220        O  0.01730080  0.98277490  0.26419103    -0.68700
O221        O  0.48291556  0.51708684  0.26410586    -0.68600
O222        O  0.48286423  0.51712605  0.40242224    -0.68700
O223        O  0.03475683  0.56898504  0.33326606    -0.68600
O224        O  0.43109318  0.96524480  0.33318396    -0.68800
V225        V  0.01659641  0.98347500  0.33335027     1.35200
V226        V  0.48356021  0.51644863  0.33326505     1.35200
C227        C  0.43073220  0.93058320  0.33326648     0.80600
C228        C  0.06941839  0.56934835  0.33325859     0.80700
C229        C  0.00004334  0.99999654  0.42579750     0.80600
C230        C  0.00020326  0.99996112  0.24080034     0.80500
O231        O  0.06907646  0.78471032  0.33326701    -0.68600
O232        O  0.46528306  0.68103737  0.33335057    -0.68800
O233        O  0.01713750  0.73285293  0.26414722    -0.68700
O234        O  0.01720905  0.73288932  0.40245636    -0.68700
O235        O  0.48291565  0.76720127  0.40246550    -0.68600
O236        O  0.48294594  0.76726579  0.26415873    -0.68700
O237        O  0.43103544  0.71539581  0.33329472    -0.68600
O238        O  0.03483528  0.81907489  0.33334624    -0.68800
V239        V  0.01651181  0.73354174  0.33330388     1.35200
V240        V  0.48359985  0.76656799  0.33331451     1.35200
C241        C  0.06947464  0.81938993  0.33331015     0.80600
C242        C  0.43064316  0.68071827  0.33334045     0.80700
C243        C  0.00003362  0.75005720  0.24080746     0.80600
C244        C  0.00005359  0.75003184  0.42580306     0.80500
O245        O  0.28472819  0.56911827  0.33341968    -0.68600
O246        O  0.18112113  0.96525969  0.33325712    -0.68800
O247        O  0.23282428  0.51715597  0.40247681    -0.68700
O248        O  0.23291653  0.51734290  0.26416560    -0.68700
O249        O  0.26728830  0.98281693  0.26415619    -0.68600
O250        O  0.26730376  0.98286075  0.40247191    -0.68700
O251        O  0.21542779  0.93096060  0.33334101    -0.68600
O252        O  0.31903972  0.53482381  0.33330133    -0.68800
V253        V  0.23353375  0.51658120  0.33332144     1.35200
V254        V  0.26662732  0.98350099  0.33331295     1.35200
C255        C  0.31938917  0.56948020  0.33337991     0.80600
C256        C  0.18076690  0.93060156  0.33330400     0.80700
C257        C  0.25001178  0.50002549  0.42579664     0.80600
C258        C  0.25004972  0.50018716  0.24079943     0.80500
O259        O  0.21530693  0.68097740  0.33332596    -0.68600
O260        O  0.31906610  0.78469040  0.33326687    -0.68800
O261        O  0.26719705  0.73286650  0.40245221    -0.68700
O262        O  0.26717213  0.73280447  0.26414388    -0.68700
O263        O  0.23294388  0.76718110  0.26410915    -0.68600
O264        O  0.23286757  0.76714179  0.40241889    -0.68700
O265        O  0.28479051  0.81902030  0.33329885    -0.68600
O266        O  0.18102137  0.71529719  0.33322322    -0.68800
V267        V  0.26651851  0.73350235  0.33329734     1.35200
V268        V  0.23357162  0.76649329  0.33326382     1.35200
C269        C  0.18065285  0.68063034  0.33326838     0.80600
C270        C  0.31944234  0.81935941  0.33327978     0.80700
C271        C  0.25003066  0.75000798  0.42578031     0.80600
C272        C  0.25006143  0.74999025  0.24078257     0.80500
O273        O  0.46528016  0.53426919  0.00006024    -0.68600
O274        O  0.06901642  0.53427135  0.99998866    -0.68800
O275        O  0.01716255  0.53436668  0.93086696    -0.68700
O276        O  0.01713086  0.53417259  0.06917490    -0.68700
O277        O  0.48301385  0.96573565  0.06913424    -0.68600
O278        O  0.48291875  0.96568323  0.93083586    -0.68700
O279        O  0.03483794  0.96572019  0.99996202    -0.68600
O280        O  0.43109555  0.96572041  0.00001026    -0.68800
V281        V  0.01648103  0.53293596  0.00002076     1.35200
V282        V  0.48363201  0.96704886  0.99998489     1.35200
C283        C  0.43074331  0.00002685  0.99993939     0.80600
C284        C  0.06949466  0.00002668  0.99999123     0.80700
C285        C  0.99998237  0.50009485  0.90746584     0.80600
C286        C  0.00000468  0.49984090  0.09246315     0.80500
O287        O  0.01719923  0.78429609  0.93079247    -0.68600
O288        O  0.01713018  0.78432078  0.06910419    -0.68800
O289        O  0.06903297  0.78430503  0.00001021    -0.68700
O290        O  0.46529846  0.78431010  0.99988382    -0.68700
O291        O  0.43099476  0.71570430  0.99997444    -0.68600
O292        O  0.03472762  0.71569938  0.99996647    -0.68700
O293        O  0.48287703  0.71571647  0.06912904    -0.68600
O294        O  0.48284496  0.71569156  0.93081488    -0.68800
V295        V  0.01649866  0.78297437  0.99994839     1.35200
V296        V  0.48352828  0.71703653  0.99997094     1.35200
C297        C  0.00002069  0.74999007  0.90745880     0.80600
C298        C  0.00000097  0.75002342  0.09246240     0.80700
C299        C  0.06938731  0.75000082  0.99999690     0.80600
C300        C  0.43063948  0.75000747  0.99991750     0.80500
O301        O  0.28486003  0.96578311  0.99987514    -0.68600
O302        O  0.18112731  0.96578142  0.00008752    -0.68800
O303        O  0.23289477  0.96576308  0.93082992    -0.68700
O304        O  0.23308753  0.96580022  0.06913091    -0.68700
O305        O  0.26714515  0.53437538  0.06906154    -0.68600
O306        O  0.26717425  0.53421488  0.93076104    -0.68700
O307        O  0.21528919  0.53428967  0.99982673    -0.68600
O308        O  0.31902715  0.53428865  0.99999288    -0.68800
V309        V  0.23366072  0.96711746  0.99998029     1.35200
V310        V  0.26649234  0.53295783  0.99991240     1.35200
C311        C  0.31938140  0.49998424  0.00003386     0.80600
C312        C  0.18063111  0.49998588  0.99989738     0.80700
C313        C  0.25004222  0.00005647  0.90746663     0.80600
C314        C  0.25023018  0.00010497  0.09246422     0.80500
O315        O  0.31903071  0.78430286  0.99995990    -0.68600
O316        O  0.21529155  0.78429655  0.99995116    -0.68800
O317        O  0.26715783  0.78428722  0.06910853    -0.68700
O318        O  0.26716923  0.78431464  0.93080304    -0.68700
O319        O  0.23282029  0.71570990  0.93078866    -0.68600
O320        O  0.23290966  0.71568246  0.06910032    -0.68700
O321        O  0.18099201  0.71569087  0.00000785    -0.68600
O322        O  0.28473170  0.71569706  0.99988245    -0.68800
V323        V  0.26649480  0.78296621  0.99995545     1.35200
V324        V  0.23352933  0.71702819  0.99994500     1.35200
C325        C  0.31938908  0.75000114  0.99991120     0.80600
C326        C  0.18063366  0.74999290  0.99998964     0.80700
C327        C  0.25004204  0.74998136  0.09244839     0.80600
C328        C  0.24999504  0.75001857  0.90745168     0.80500
O329        O  0.03430499  0.96526104  0.66659792    -0.68600
O330        O  0.03425528  0.56898519  0.66651926    -0.68800
O331        O  0.03425947  0.51720766  0.73578457    -0.68700
O332        O  0.03425244  0.51704234  0.59747890    -0.68700
O333        O  0.46570379  0.98291243  0.59747342    -0.68600
O334        O  0.46569948  0.98274301  0.73578555    -0.68700
O335        O  0.46564969  0.53468272  0.66658548    -0.68600
O336        O  0.46569976  0.93095856  0.66652358    -0.68800
V337        V  0.03292149  0.51645186  0.66663155     1.35200
V338        V  0.46703372  0.98349366  0.66662898     1.35200
C339        C  0.00000230  0.93060231  0.66654028     0.80600
C340        C  0.99995267  0.56934033  0.66653790     0.80700
C341        C  0.99995966  0.50006586  0.75913043     0.80600
C342        C  0.99995066  0.49991245  0.57413305     0.80500
O343        O  0.46568816  0.78469519  0.66662793    -0.68600
O344        O  0.46566720  0.68095092  0.66659647    -0.68800
O345        O  0.46568455  0.73280688  0.73577541    -0.68700
O346        O  0.46567754  0.73283995  0.59746472    -0.68700
O347        O  0.03428230  0.76708252  0.59746994    -0.68600
O348        O  0.03428860  0.76714786  0.73577207    -0.68700
O349        O  0.03427290  0.71524290  0.66666165    -0.68600
O350        O  0.03429353  0.81898817  0.66656144    -0.68800
V351        V  0.46701243  0.73348974  0.66661845     1.35200
V352        V  0.03295032  0.76644872  0.66661852     1.35200
C353        C  0.99999395  0.81935053  0.66657593     0.80600
C354        C  0.99996623  0.68058874  0.66661654     0.80700
C355        C  0.49998907  0.74997863  0.75911839     0.80600
C356        C  0.49998121  0.74995921  0.57412540     0.80500
O357        O  0.28432379  0.51717927  0.73580772    -0.68600
O358        O  0.28437966  0.51722384  0.59749262    -0.68800
O359        O  0.28435373  0.56907473  0.66665392    -0.68700
O360        O  0.28430225  0.96530372  0.66666436    -0.68700
O361        O  0.21569683  0.93099639  0.66655628    -0.68600
O362        O  0.21574851  0.53477084  0.66667909    -0.68700
O363        O  0.21572576  0.98291673  0.59745317    -0.68600
O364        O  0.21566548  0.98280643  0.73576774    -0.68800
V365        V  0.28302148  0.51654104  0.66665015     1.35200
V366        V  0.21702695  0.98352922  0.66661098     1.35200
C367        C  0.24995996  0.99998169  0.75913052     0.80600
C368        C  0.25003983  0.00004265  0.57413291     0.80700
C369        C  0.25005115  0.56943018  0.66667812     0.80600
C370        C  0.25000144  0.93064422  0.66659585     0.80500
O371        O  0.28433627  0.81906776  0.66655070    -0.68600
O372        O  0.28435783  0.71534276  0.66669271    -0.68800
O373        O  0.28434828  0.76716231  0.59746480    -0.68700
O374        O  0.28434232  0.76724797  0.73577785    -0.68700
O375        O  0.21573817  0.73288602  0.73576588    -0.68600
O376        O  0.21574415  0.73289904  0.59745992    -0.68700
O377        O  0.21575252  0.68103123  0.66661920    -0.68600
O378        O  0.21573074  0.78475354  0.66660859    -0.68800
V379        V  0.28301335  0.76653867  0.66662116     1.35200
V380        V  0.21707571  0.73355987  0.66661337     1.35200
C381        C  0.25002921  0.81941518  0.66656773     0.80600
C382        C  0.25005802  0.68068135  0.66667014     0.80700
C383        C  0.25004596  0.75002773  0.57411767     0.80600
C384        C  0.25003738  0.75006803  0.75911610     0.80500
C385        C  0.25000705  0.89148329  0.66656434    -0.10100
C386        C  0.25001841  0.85857343  0.66655273    -0.11600
C387        C  0.25005393  0.60859754  0.66669690    -0.10100
C388        C  0.25006136  0.64151740  0.66669434    -0.11600
C389        C  0.00000199  0.89143652  0.66651590    -0.10100
C390        C  0.00000006  0.85851906  0.66653343    -0.11600
C391        C  0.99995783  0.64142109  0.66657289    -0.10100
C392        C  0.99995328  0.60850405  0.66653587    -0.11600
C393        C  0.25002703  0.75005936  0.81133971    -0.10100
C394        C  0.25000560  0.75003597  0.85522815    -0.11600
C395        C  0.24998432  0.00002967  0.85524300    -0.10100
C396        C  0.24995092  0.99999354  0.81135422    -0.11600
C397        C  0.35855613  0.75000415  0.99989491    -0.10100
C398        C  0.39147394  0.75000740  0.99989700    -0.11600
C399        C  0.14146656  0.74999225  0.00000734    -0.10100
C400        C  0.10855203  0.74999674  0.00000984    -0.11600
C401        C  0.00001086  0.74998241  0.85523312    -0.10100
C402        C  0.49999711  0.74997958  0.81134390    -0.11600
C403        C  0.39158339  0.00004172  0.99989317    -0.10100
C404        C  0.35854513  0.49997882  0.00007040    -0.11600
C405        C  0.14146273  0.49998150  0.99986031    -0.10100
C406        C  0.10866650  0.00004090  0.00003762    -0.11600
C407        C  0.99996657  0.50013413  0.81135366    -0.10100
C408        C  0.99997778  0.50015287  0.85524257    -0.11600
C409        C  0.25004245  0.75002380  0.52189367    -0.10100
C410        C  0.25003236  0.75001864  0.47800441    -0.11600
C411        C  0.25006512  0.74998143  0.18855958    -0.10100
C412        C  0.25005754  0.74997603  0.14467147    -0.11600
C413        C  0.25005199  0.50003522  0.47802011    -0.10100
C414        C  0.25007105  0.00002267  0.52190911    -0.11600
C415        C  0.25025048  0.00009967  0.14468773    -0.10100
C416        C  0.25022210  0.00005042  0.18857624    -0.11600
C417        C  0.00002261  0.74999234  0.47802173    -0.10100
C418        C  0.99999009  0.74996374  0.52190703    -0.11600
C419        C  0.35854834  0.60865100  0.33340213    -0.10100
C420        C  0.39146170  0.64156971  0.33338296    -0.11600
C421        C  0.10866630  0.85853290  0.33331633    -0.10100
C422        C  0.14159832  0.89143540  0.33331432    -0.11600
C423        C  0.00000078  0.75003547  0.14468978    -0.10100
C424        C  0.00001301  0.75004862  0.18858041    -0.11600
C425        C  0.99998370  0.49997198  0.47802084    -0.10100
C426        C  0.99995599  0.49992865  0.52190926    -0.11600
C427        C  0.35862494  0.85851518  0.33326965    -0.10100
C428        C  0.39155805  0.89141913  0.33326209    -0.11600
C429        C  0.10857939  0.60852682  0.33324803    -0.10100
C430        C  0.14148257  0.64146079  0.33325391    -0.10400
C431        C  0.99999499  0.49978679  0.14468747    -0.10100
C432        C  0.00000453  0.49981312  0.18857550    -0.11600
O433        O  0.96532378  0.43094519  0.33339851    -0.68600
O434        O  0.56913178  0.03467585  0.33334663    -0.68800
O435        O  0.51721713  0.48287406  0.40248352    -0.68700
O436        O  0.51716720  0.48273365  0.26418167    -0.68700
O437        O  0.98305032  0.01712926  0.26409795    -0.68600
O438        O  0.98287983  0.01710810  0.40239698    -0.68700
O439        O  0.53482645  0.06897687  0.33330450    -0.68600
O440        O  0.93102804  0.46525574  0.33326111    -0.68800
V441        V  0.51652914  0.48347938  0.33333179     1.35200
V442        V  0.98362879  0.01644548  0.33324773     1.35200
C443        C  0.93066788  0.43059651  0.33333851     0.80600
C444        C  0.56948461  0.06933352  0.33333020     0.80700
C445        C  0.50002667  0.49999741  0.42579706     0.80600
C446        C  0.50002978  0.49988073  0.24079982     0.80500
O447        O  0.56907491  0.28481320  0.33323386    -0.68600
O448        O  0.96538780  0.18103383  0.33331825    -0.68800
O449        O  0.51718936  0.23290358  0.26412851    -0.68700
O450        O  0.51726243  0.23293946  0.40243964    -0.68700
O451        O  0.98286463  0.26714609  0.40245034    -0.68600
O452        O  0.98289276  0.26721226  0.26414170    -0.68700
O453        O  0.93103808  0.21529021  0.33326440    -0.68600
O454        O  0.53473089  0.31907488  0.33331540    -0.68800
V455        V  0.51656209  0.23358990  0.33328175     1.35200
V456        V  0.98355028  0.26651625  0.33329423     1.35200
C457        C  0.56940398  0.31945872  0.33325729     0.80600
C458        C  0.93071413  0.18064659  0.33328855     0.80700
C459        C  0.50003276  0.25005588  0.24079223     0.80600
C460        C  0.50005478  0.25002881  0.42579079     0.80500
O461        O  0.78484783  0.06900055  0.33331055    -0.68600
O462        O  0.68100113  0.46537877  0.33322652    -0.68800
O463        O  0.73295430  0.01711610  0.40243394    -0.68700
O464        O  0.73302032  0.01715395  0.26413171    -0.68700
O465        O  0.76717341  0.48299494  0.26412108    -0.68600
O466        O  0.76718285  0.48290964  0.40242770    -0.68700
O467        O  0.71530641  0.43107830  0.33324370    -0.68600
O468        O  0.81915916  0.03470573  0.33328553    -0.68800
V469        V  0.73365229  0.01646415  0.33328389     1.35200
V470        V  0.76650800  0.48361734  0.33327415     1.35200
C471        C  0.81950889  0.06936194  0.33329381     0.80600
C472        C  0.68064598  0.43072046  0.33321601     0.80700
C473        C  0.75012409  0.99999150  0.42579706     0.80600
C474        C  0.75017188  0.00000064  0.24079973     0.80500
O475        O  0.71535582  0.18098105  0.33336173    -0.68600
O476        O  0.81905933  0.28472943  0.33330687    -0.68800
O477        O  0.76721719  0.23288825  0.40248596    -0.68700
O478        O  0.76719577  0.23282861  0.26417772    -0.68700
O479        O  0.73292248  0.26716026  0.26414223    -0.68600
O480        O  0.73284232  0.26711837  0.40245194    -0.68700
O481        O  0.78474100  0.31901754  0.33333831    -0.68600
O482        O  0.68102685  0.21525843  0.33325804    -0.68800
V483        V  0.76653916  0.23352369  0.33333186     1.35200
V484        V  0.73354963  0.26647268  0.33329762     1.35200
C485        C  0.68069025  0.18060846  0.33331190     0.80600
C486        C  0.81940402  0.31938124  0.33332917     0.80700
C487        C  0.75002814  0.25000714  0.42581309     0.80600
C488        C  0.75006277  0.24999189  0.24081576     0.80500
O489        O  0.96540381  0.03432592  0.99990255    -0.68600
O490        O  0.56913407  0.03432613  0.99998664    -0.68800
O491        O  0.51727010  0.03428794  0.93078574    -0.68700
O492        O  0.51726571  0.03434036  0.06910579    -0.68700
O493        O  0.98288049  0.46556799  0.06906350    -0.68600
O494        O  0.98281177  0.46576202  0.93075351    -0.68700
O495        O  0.53471636  0.46566570  0.99980204    -0.68600
O496        O  0.93097792  0.46566355  0.00000737    -0.68800
V497        V  0.51660034  0.03298689  0.99994585     1.35200
V498        V  0.98351371  0.46699803  0.99990845     1.35200
C499        C  0.93062171  0.49996676  0.00005344     0.80600
C500        C  0.56937438  0.49996954  0.99987591     0.80700
C501        C  0.50008229  0.99997274  0.90746653     0.80600
C502        C  0.50016695  0.00004119  0.09246421     0.80500
O503        O  0.51720074  0.28429664  0.93080574    -0.68600
O504        O  0.51713134  0.28431992  0.06911020    -0.68800
O505        O  0.56903394  0.28430409  0.00002280    -0.68700
O506        O  0.96529981  0.28431023  0.99989713    -0.68700
O507        O  0.93099556  0.21570437  0.99998685    -0.68600
O508        O  0.53472801  0.21569837  0.99997780    -0.68700
O509        O  0.98287717  0.21571484  0.06913437    -0.68600
O510        O  0.98284561  0.21569181  0.93082709    -0.68800
V511        V  0.51649997  0.28297411  0.99995911     1.35200
V512        V  0.98352877  0.21703591  0.99998079     1.35200
C513        C  0.50002198  0.24999079  0.90747296     0.80600
C514        C  0.50000110  0.25002203  0.09246499     0.80700
C515        C  0.56938790  0.24999962  0.00001217     0.80600
C516        C  0.93064071  0.25000777  0.99993418     0.80500
O517        O  0.78472225  0.46568289  0.00003689    -0.68600
O518        O  0.68098868  0.46568405  0.00000601    -0.68800
O519        O  0.73282155  0.46561023  0.93086098    -0.68700
O520        O  0.73289386  0.46577072  0.06917835    -0.68700
O521        O  0.76733800  0.03440492  0.06910913    -0.68600
O522        O  0.76724582  0.03436783  0.93079221    -0.68700
O523        O  0.71542452  0.03438727  0.99998920    -0.68600
O524        O  0.81916584  0.03438880  0.99991068    -0.68800
V525        V  0.73352357  0.46701987  0.00001869     1.35200
V526        V  0.76662828  0.03305550  0.99995087     1.35200
C527        C  0.81951995  0.00008378  0.99987616     0.80600
C528        C  0.68076756  0.00008162  0.00005517     0.80700
C529        C  0.74999063  0.49989053  0.90746670     0.80600
C530        C  0.75002297  0.50010240  0.09246385     0.80500
O531        O  0.81903183  0.28430351  0.99999156    -0.68600
O532        O  0.71529209  0.28429615  0.99998200    -0.68800
O533        O  0.76715831  0.28428719  0.06913980    -0.68700
O534        O  0.76717020  0.28431494  0.93083367    -0.68700
O535        O  0.73282180  0.21571023  0.93081904    -0.68600
O536        O  0.73291067  0.21568243  0.06913152    -0.68700
O537        O  0.68099311  0.21569042  0.00003822    -0.68600
O538        O  0.78473332  0.21569768  0.99991363    -0.68800
V539        V  0.76649562  0.28296637  0.99998650     1.35200
V540        V  0.73353066  0.21702829  0.99997580     1.35200
C541        C  0.81939046  0.25000189  0.99994299     0.80600
C542        C  0.68063442  0.24999235  0.00002019     0.80700
C543        C  0.75004287  0.24998140  0.09247979     0.80600
C544        C  0.74999591  0.25001873  0.90748209     0.80500
O545        O  0.53425490  0.46524887  0.66674368    -0.68600
O546        O  0.53430417  0.06899774  0.66667276    -0.68800
O547        O  0.53430359  0.01709549  0.73578721    -0.68700
O548        O  0.53430789  0.01716438  0.59748141    -0.68700
O549        O  0.96564832  0.48278994  0.59747554    -0.68600
O550        O  0.96565533  0.48285648  0.73578750    -0.68700
O551        O  0.96569905  0.03469469  0.66673269    -0.68600
O552        O  0.96565000  0.43094643  0.66667811    -0.68800
V553        V  0.53297119  0.01646261  0.66663478     1.35200
V554        V  0.96698403  0.48348335  0.66663175     1.35200
C555        C  0.49995258  0.43058932  0.66672544     0.80600
C556        C  0.50000144  0.06935366  0.66672265     0.80700
C557        C  0.50000305  0.99990753  0.75913065     0.80600
C558        C  0.50000706  0.00005254  0.57413343     0.80500
O559        O  0.96566860  0.28467907  0.66666546    -0.68600
O560        O  0.96568785  0.18095052  0.66663287    -0.68800
O561        O  0.96568539  0.23279863  0.73579823    -0.68700
O562        O  0.96567823  0.23283184  0.59748216    -0.68700
O563        O  0.53428174  0.26709362  0.59748702    -0.68600
O564        O  0.53428956  0.26715946  0.73579413    -0.68700
O565        O  0.53429290  0.21526165  0.66669747    -0.68600
O566        O  0.53427341  0.31899141  0.66659828    -0.68800
V567        V  0.96701320  0.23348201  0.66664239     1.35200
V568        V  0.53295032  0.26645955  0.66664187     1.35200
C569        C  0.49996725  0.31934178  0.66664461     0.80600
C570        C  0.49999315  0.18059977  0.66668353     0.80700
C571        C  0.99999010  0.24998029  0.75913981     0.80600
C572        C  0.99998127  0.24996016  0.57413855     0.80500
O573        O  0.78426953  0.01716118  0.73580446    -0.68600
O574        O  0.78432988  0.01717358  0.59750085    -0.68800
O575        O  0.78429380  0.06903511  0.66664127    -0.68700
O576        O  0.78436186  0.46534464  0.66664895    -0.68700
O577        O  0.71575671  0.43103596  0.66654337    -0.68600
O578        O  0.71568887  0.03472979  0.66666362    -0.68700
O579        O  0.71577553  0.48296722  0.59746086    -0.68600
O580        O  0.71571976  0.48282431  0.73576434    -0.68800
V581        V  0.78296437  0.01650158  0.66665202     1.35200
V582        V  0.71708404  0.48356873  0.66661254     1.35200
C583        C  0.75001079  0.49997186  0.75913035     0.80600
C584        C  0.75008342  0.50009482  0.57413233     0.80700
C585        C  0.74999047  0.06939022  0.66666676     0.80600
C586        C  0.75006197  0.43068416  0.66658458     0.80500
O587        O  0.78436579  0.31907011  0.66657951    -0.68600
O588        O  0.78432717  0.21531091  0.66672028    -0.68800
O589        O  0.78434803  0.26714775  0.59749444    -0.68700
O590        O  0.78434164  0.26723208  0.73580718    -0.68700
O591        O  0.71573756  0.23289995  0.73579493    -0.68600
O592        O  0.71574392  0.23291412  0.59748961    -0.68700
O593        O  0.71572224  0.18102810  0.66664645    -0.68600
O594        O  0.71576067  0.28478472  0.66663711    -0.68800
V595        V  0.78301284  0.26652417  0.66665036     1.35200
V596        V  0.71707549  0.23357358  0.66664240     1.35200
C597        C  0.75006853  0.31943786  0.66659415     0.80600
C598        C  0.75001783  0.18065777  0.66669481     0.80700
C599        C  0.75004563  0.25002812  0.57414779     0.80600
C600        C  0.75003683  0.25006724  0.75914529     0.80500
C601        C  0.75007024  0.39152209  0.66656621    -0.10100
C602        C  0.75007754  0.35860894  0.66656949    -0.11600
C603        C  0.74999071  0.10855842  0.66669754    -0.10100
C604        C  0.75000179  0.14148162  0.66670907    -0.11600
C605        C  0.49995340  0.39142119  0.66672695    -0.10100
C606        C  0.49995893  0.35850614  0.66668925    -0.11600
C607        C  0.49999882  0.14143576  0.66672635    -0.10100
C608        C  0.50000073  0.10852001  0.66674524    -0.11600
C609        C  0.75002631  0.25005898  0.81136943    -0.10100
C610        C  0.75000583  0.25003626  0.85525791    -0.11600
C611        C  0.74997331  0.49985519  0.85524286    -0.10100
C612        C  0.74998517  0.49989703  0.81135418    -0.11600
C613        C  0.85855767  0.25000508  0.99992621    -0.10100
C614        C  0.89147526  0.25000804  0.99992325    -0.11600
C615        C  0.64146719  0.24999120  0.00003630    -0.10100
C616        C  0.60855247  0.24999536  0.00003354    -0.11600
C617        C  0.50001239  0.24998387  0.85525017    -0.10100
C618        C  0.99999860  0.24998132  0.81136271    -0.11600
C619        C  0.89145695  0.49996950  0.00007990    -0.10100
C620        C  0.85868125  0.00007206  0.99986394    -0.11600
C621        C  0.64159666  0.00006970  0.00006702    -0.10100
C622        C  0.60854218  0.49997323  0.99985009    -0.11600
C623        C  0.50001223  0.99990356  0.81135429    -0.10100
C624        C  0.50004722  0.99993811  0.85524285    -0.11600
C625        C  0.75004171  0.25002448  0.52192465    -0.10100
C626        C  0.75003039  0.25001868  0.47803612    -0.11600
C627        C  0.75006635  0.24998262  0.18859189    -0.10100
C628        C  0.75005833  0.24997621  0.14470348    -0.11600
C629        C  0.75010550  0.00000035  0.47802086    -0.10100
C630        C  0.75008756  0.50007433  0.52190886    -0.11600
C631        C  0.75003447  0.50016944  0.14468761    -0.10100
C632        C  0.75004533  0.50020526  0.18857560    -0.11600
C633        C  0.50002368  0.24998920  0.47801911    -0.10100
C634        C  0.49999038  0.24996239  0.52190997    -0.11600
C635        C  0.85866757  0.10853221  0.33328510    -0.10100
C636        C  0.89156912  0.14146268  0.33328362    -0.11600
C637        C  0.60855896  0.35863852  0.33321485    -0.10100
C638        C  0.64147729  0.39155422  0.33319483    -0.11600
C639        C  0.49999973  0.25003388  0.14468531    -0.10100
C640        C  0.50001138  0.25004721  0.18857173    -0.11600
C641        C  0.50002149  0.00003718  0.47802140    -0.10100
C642        C  0.50001129  0.00006228  0.52190953    -0.11600
C643        C  0.85856657  0.35854385  0.33334413    -0.10100
C644        C  0.89149650  0.39144234  0.33334962    -0.11600
C645        C  0.60864249  0.10850130  0.33333136    -0.10100
C646        C  0.64154130  0.14143198  0.33332156    -0.10400
C647        C  0.50023601  0.00003634  0.14468804    -0.10100
C648        C  0.50025497  0.99998986  0.18857647    -0.11600
O649        O  0.96539114  0.93093732  0.33336031    -0.68600
O650        O  0.56906657  0.53468928  0.33326840    -0.68800
O651        O  0.51723091  0.98285446  0.40251000    -0.68700
O652        O  0.51730073  0.98277492  0.26419105    -0.68700
O653        O  0.98291553  0.51708680  0.26410589    -0.68600
O654        O  0.98286421  0.51712604  0.40242225    -0.68700
O655        O  0.53475682  0.56898502  0.33326605    -0.68600
O656        O  0.93109327  0.96524484  0.33318401    -0.68800
V657        V  0.51659637  0.98347500  0.33335027     1.35200
V658        V  0.98356020  0.51644861  0.33326504     1.35200
C659        C  0.93073225  0.93058322  0.33326650     0.80600
C660        C  0.56941847  0.56934830  0.33325865     0.80700
C661        C  0.50004327  0.99999651  0.42579752     0.80600
C662        C  0.50020322  0.99996115  0.24080035     0.80500
O663        O  0.56907654  0.78471037  0.33326701    -0.68600
O664        O  0.96528297  0.68103737  0.33335057    -0.68800
O665        O  0.51713761  0.73285297  0.26414722    -0.68700
O666        O  0.51720916  0.73288936  0.40245636    -0.68700
O667        O  0.98291561  0.76720131  0.40246551    -0.68600
O668        O  0.98294591  0.76726584  0.26415872    -0.68700
O669        O  0.93103537  0.71539584  0.33329472    -0.68600
O670        O  0.53483532  0.81907487  0.33334624    -0.68800
V671        V  0.51651188  0.73354179  0.33330388     1.35200
V672        V  0.98359982  0.76656800  0.33331451     1.35200
C673        C  0.56947469  0.81938995  0.33331015     0.80600
C674        C  0.93064308  0.68071829  0.33334045     0.80700
C675        C  0.50003369  0.75005719  0.24080746     0.80600
C676        C  0.50005366  0.75003183  0.42580306     0.80500
O677        O  0.78472816  0.56911826  0.33341971    -0.68600
O678        O  0.68112115  0.96525973  0.33325721    -0.68800
O679        O  0.73282428  0.51715594  0.40247679    -0.68700
O680        O  0.73291652  0.51734292  0.26416561    -0.68700
O681        O  0.76728828  0.98281696  0.26415620    -0.68600
O682        O  0.76730381  0.98286071  0.40247188    -0.68700
O683        O  0.71542776  0.93096059  0.33334099    -0.68600
O684        O  0.81903969  0.53482381  0.33330133    -0.68800
V685        V  0.73353373  0.51658120  0.33332144     1.35200
V686        V  0.76662729  0.98350094  0.33331294     1.35200
C687        C  0.81938913  0.56948019  0.33337992     0.80600
C688        C  0.68076691  0.93060160  0.33330402     0.80700
C689        C  0.75001182  0.50002548  0.42579664     0.80600
C690        C  0.75004970  0.50018718  0.24079942     0.80500
O691        O  0.71530691  0.68097740  0.33332611    -0.68600
O692        O  0.81906606  0.78469038  0.33326680    -0.68800
O693        O  0.76719705  0.73286654  0.40245222    -0.68700
O694        O  0.76717216  0.73280447  0.26414389    -0.68700
O695        O  0.73294392  0.76718109  0.26410916    -0.68600
O696        O  0.73286752  0.76714178  0.40241886    -0.68700
O697        O  0.78479048  0.81902028  0.33329886    -0.68600
O698        O  0.68102136  0.71529721  0.33322323    -0.68800
V699        V  0.76651849  0.73350234  0.33329737     1.35200
V700        V  0.73357161  0.76649328  0.33326380     1.35200
C701        C  0.68065279  0.68063032  0.33326851     0.80600
C702        C  0.81944232  0.81935940  0.33327976     0.80700
C703        C  0.75003064  0.75000799  0.42578031     0.80600
C704        C  0.75006145  0.74999017  0.24078260     0.80500
O705        O  0.96528025  0.53426930  0.00006025    -0.68600
O706        O  0.56901634  0.53427127  0.99998866    -0.68800
O707        O  0.51716249  0.53436658  0.93086698    -0.68700
O708        O  0.51713079  0.53417249  0.06917488    -0.68700
O709        O  0.98301400  0.96573567  0.06913425    -0.68600
O710        O  0.98291887  0.96568322  0.93083586    -0.68700
O711        O  0.53483785  0.96572014  0.99996201    -0.68600
O712        O  0.93109564  0.96572039  0.00001026    -0.68800
V713        V  0.51648098  0.53293590  0.00002076     1.35200
V714        V  0.98363212  0.96704889  0.99998490     1.35200
C715        C  0.93074337  0.00002682  0.99993942     0.80600
C716        C  0.56949461  0.00002663  0.99999127     0.80700
C717        C  0.49998234  0.50009478  0.90746585     0.80600
C718        C  0.50000465  0.49984082  0.09246314     0.80500
O719        O  0.51719935  0.78429609  0.93079247    -0.68600
O720        O  0.51713030  0.78432078  0.06910419    -0.68800
O721        O  0.56903308  0.78430500  0.00001029    -0.68700
O722        O  0.96529837  0.78431009  0.99988391    -0.68700
O723        O  0.93099467  0.71570429  0.99997441    -0.68600
O724        O  0.53472767  0.71569935  0.99996644    -0.68700
O725        O  0.98287699  0.71571646  0.06912904    -0.68600
O726        O  0.98284497  0.71569156  0.93081488    -0.68800
V727        V  0.51649877  0.78297437  0.99994839     1.35200
V728        V  0.98352823  0.71703653  0.99997094     1.35200
C729        C  0.50002082  0.74999007  0.90745880     0.80600
C730        C  0.50000101  0.75002342  0.09246240     0.80700
C731        C  0.56938737  0.75000078  0.99999692     0.80600
C732        C  0.93063940  0.75000746  0.99991752     0.80500
O733        O  0.78486013  0.96578315  0.99987514    -0.68600
O734        O  0.68112736  0.96578139  0.00008752    -0.68800
O735        O  0.73289491  0.96576311  0.93082999    -0.68700
O736        O  0.73308765  0.96580019  0.06913098    -0.68700
O737        O  0.76714514  0.53437537  0.06906154    -0.68600
O738        O  0.76717428  0.53421488  0.93076104    -0.68700
O739        O  0.71528917  0.53428968  0.99982671    -0.68600
O740        O  0.81902713  0.53428866  0.99999290    -0.68800
V741        V  0.73366081  0.96711746  0.99998033     1.35200
V742        V  0.76649234  0.53295783  0.99991241     1.35200
C743        C  0.81938150  0.49998424  0.00003387     0.80600
C744        C  0.68063096  0.49998588  0.99989737     0.80700
C745        C  0.75004227  0.00005652  0.90746671     0.80600
C746        C  0.75023019  0.00010493  0.09246431     0.80500
O747        O  0.81903074  0.78430293  0.99996021    -0.68600
O748        O  0.71529153  0.78429655  0.99995127    -0.68800
O749        O  0.76715773  0.78428719  0.06910866    -0.68700
O750        O  0.76716920  0.78431468  0.93080317    -0.68700
O751        O  0.73282027  0.71570994  0.93078872    -0.68600
O752        O  0.73290964  0.71568243  0.06910039    -0.68700
O753        O  0.68099200  0.71569086  0.00000788    -0.68600
O754        O  0.78473170  0.71569712  0.99988243    -0.68800
V755        V  0.76649477  0.78296622  0.99995561     1.35200
V756        V  0.73352933  0.71702820  0.99994504     1.35200
C757        C  0.81938908  0.75000121  0.99991131     0.80600
C758        C  0.68063368  0.74999290  0.99998970     0.80700
C759        C  0.75004201  0.74998133  0.09244848     0.80600
C760        C  0.74999510  0.75001862  0.90745177     0.80500
O761        O  0.53430500  0.96526109  0.66659793    -0.68600
O762        O  0.53425529  0.56898516  0.66651925    -0.68800
O763        O  0.53425948  0.51720767  0.73578457    -0.68700
O764        O  0.53425245  0.51704234  0.59747890    -0.68700
O765        O  0.96570378  0.98291245  0.59747344    -0.68600
O766        O  0.96569948  0.98274301  0.73578556    -0.68700
O767        O  0.96564971  0.53468278  0.66658549    -0.68600
O768        O  0.96569975  0.93095857  0.66652358    -0.68800
V769        V  0.53292152  0.51645186  0.66663155     1.35200
V770        V  0.96703371  0.98349368  0.66662897     1.35200
C771        C  0.50000241  0.93060236  0.66654028     0.80600
C772        C  0.49995263  0.56934048  0.66653790     0.80700
C773        C  0.49995965  0.50006586  0.75913043     0.80600
C774        C  0.49995065  0.49991244  0.57413304     0.80500
O775        O  0.96568818  0.78469520  0.66662791    -0.68600
O776        O  0.96566725  0.68095092  0.66659647    -0.68800
O777        O  0.96568457  0.73280689  0.73577541    -0.68700
O778        O  0.96567756  0.73283994  0.59746470    -0.68700
O779        O  0.53428229  0.76708252  0.59746991    -0.68600
O780        O  0.53428860  0.76714784  0.73577206    -0.68700
O781        O  0.53427288  0.71524290  0.66666163    -0.68600
O782        O  0.53429353  0.81898815  0.66656144    -0.68800
V783        V  0.96701247  0.73348977  0.66661846     1.35200
V784        V  0.53295032  0.76644870  0.66661852     1.35200
C785        C  0.49999394  0.81935052  0.66657593     0.80600
C786        C  0.49996634  0.68058864  0.66661654     0.80700
C787        C  0.99998908  0.74997863  0.75911839     0.80600
C788        C  0.99998108  0.74995918  0.57412541     0.80500
O789        O  0.78432382  0.51717926  0.73580770    -0.68600
O790        O  0.78437964  0.51722385  0.59749263    -0.68800
O791        O  0.78435372  0.56907473  0.66665391    -0.68700
O792        O  0.78430224  0.96530373  0.66666439    -0.68700
O793        O  0.71569681  0.93099638  0.66655622    -0.68600
O794        O  0.71574850  0.53477084  0.66667913    -0.68700
O795        O  0.71572578  0.98291676  0.59745320    -0.68600
O796        O  0.71566544  0.98280643  0.73576775    -0.68800
V797        V  0.78302148  0.51654104  0.66665014     1.35200
V798        V  0.71702694  0.98352922  0.66661097     1.35200
C799        C  0.74996002  0.99998170  0.75913057     0.80600
C800        C  0.75003990  0.00004265  0.57413288     0.80700
C801        C  0.75005113  0.56943018  0.66667813     0.80600
C802        C  0.75000142  0.93064422  0.66659583     0.80500
O803        O  0.78433625  0.81906777  0.66655072    -0.68600
O804        O  0.78435781  0.71534277  0.66669270    -0.68800
O805        O  0.78434826  0.76716235  0.59746481    -0.68700
O806        O  0.78434229  0.76724796  0.73577786    -0.68700
O807        O  0.71573814  0.73288601  0.73576588    -0.68600
O808        O  0.71574413  0.73289908  0.59745990    -0.68700
O809        O  0.71575251  0.68103124  0.66661918    -0.68600
O810        O  0.71573072  0.78475355  0.66660861    -0.68800
V811        V  0.78301333  0.76653869  0.66662116     1.35200
V812        V  0.71707569  0.73355989  0.66661337     1.35200
C813        C  0.75002919  0.81941519  0.66656774     0.80600
C814        C  0.75005800  0.68068136  0.66667013     0.80700
C815        C  0.75004584  0.75002761  0.57411767     0.80600
C816        C  0.75003734  0.75006801  0.75911613     0.80500
C817        C  0.75000703  0.89148329  0.66656433    -0.10100
C818        C  0.75001838  0.85857343  0.66655273    -0.11600
C819        C  0.75005390  0.60859754  0.66669690    -0.10100
C820        C  0.75006133  0.64151740  0.66669434    -0.11600
C821        C  0.50000209  0.89143657  0.66651590    -0.10100
C822        C  0.50000005  0.85851904  0.66653343    -0.11600
C823        C  0.49995784  0.64142129  0.66657289    -0.10100
C824        C  0.49995322  0.60850385  0.66653587    -0.11600
C825        C  0.75002700  0.75005938  0.81133977    -0.10100
C826        C  0.75000567  0.75003607  0.85522824    -0.11600
C827        C  0.74998436  0.00002977  0.85524309    -0.10100
C828        C  0.74995097  0.99999357  0.81135426    -0.11600
C829        C  0.85855603  0.75000406  0.99989491    -0.10100
C830        C  0.89147386  0.75000739  0.99989699    -0.11600
C831        C  0.64146660  0.74999224  0.00000733    -0.10100
C832        C  0.60855206  0.74999666  0.00000983    -0.11600
C833        C  0.50001090  0.74998241  0.85523312    -0.10100
C834        C  0.99999712  0.74997958  0.81134390    -0.11600
C835        C  0.89158345  0.00004165  0.99989316    -0.10100
C836        C  0.85854494  0.49997881  0.00007040    -0.11600
C837        C  0.64146280  0.49998151  0.99986031    -0.10100
C838        C  0.60866643  0.00004079  0.00003762    -0.11600
C839        C  0.49996659  0.50013413  0.81135366    -0.10100
C840        C  0.49997779  0.50015284  0.85524258    -0.11600
C841        C  0.75004244  0.75002387  0.52189367    -0.10100
C842        C  0.75003236  0.75001869  0.47800440    -0.11600
C843        C  0.75006504  0.74998136  0.18855963    -0.10100
C844        C  0.75005758  0.74997595  0.14467156    -0.11600
C845        C  0.75005193  0.50003523  0.47802011    -0.10100
C846        C  0.75007106  0.00002262  0.52190919    -0.11600
C847        C  0.75025040  0.00009958  0.14468782    -0.10100
C848        C  0.75022204  0.00005041  0.18857631    -0.11600
C849        C  0.50002259  0.74999232  0.47802172    -0.10100
C850        C  0.49999003  0.74996376  0.52190703    -0.11600
C851        C  0.85854829  0.60865098  0.33340213    -0.10100
C852        C  0.89146162  0.64156972  0.33338296    -0.11600
C853        C  0.60866631  0.85853296  0.33331633    -0.10100
C854        C  0.64159832  0.89143544  0.33331432    -0.11600
C855        C  0.50000076  0.75003547  0.14468978    -0.10100
C856        C  0.50001302  0.75004861  0.18858041    -0.11600
C857        C  0.49998370  0.49997198  0.47802083    -0.10100
C858        C  0.49995599  0.49992865  0.52190926    -0.11600
C859        C  0.85862493  0.85851520  0.33326965    -0.10100
C860        C  0.89155805  0.89141917  0.33326210    -0.11600
C861        C  0.60857940  0.60852675  0.33324821    -0.10100
C862        C  0.64148259  0.64146081  0.33325392    -0.10400
C863        C  0.49999499  0.49978677  0.14468747    -0.10100
C864        C  0.50000459  0.49981314  0.18857550    -0.11600
loop_ 
_geom_bond_atom_site_label_1 
_geom_bond_atom_site_label_2 
_geom_bond_distance 
_geom_bond_site_symmetry_2 
_ccdc_geom_bond_type 
O1           C11   1.263       .  A
O1          V441   1.900       .  S
O2           C12   1.263       .  A
O2          V225   1.900   1_545  S
O3           C13   1.263       .  A
O3            V9   1.900       .  S
O4           C14   1.263       .  A
O4            V9   1.900       .  S
O5          C662   1.263   1_545  A
O5           V10   1.900       .  S
O6          C661   1.263   1_545  A
O6           V10   1.900       .  S
O7           C12   1.263       .  A
O7          V442   1.900   1_455  S
O8           C11   1.263       .  A
O8          V226   1.899       .  S
V9          O433   1.900   1_455  S
V9          O218   1.900       .  S
V9          V658   2.091   1_455  T
V10         O439   1.900       .  S
V10         O224   1.900   1_545  S
V10         V657   2.091   1_545  T
C11         C212   1.434       .  S
C12         C213   1.434       .  S
C13         O654   1.263   1_455  A
C13         C425   1.434   1_455  S
C14         O653   1.263   1_455  A
C14         C432   1.434       .  S
O15          C25   1.263       .  A
O15          V23   1.900       .  S
O16          C26   1.263       .  A
O16         V455   1.900       .  S
O17          C27   1.263       .  A
O17          V23   1.900       .  S
O18          C28   1.263       .  A
O18          V23   1.900       .  S
O19         C460   1.263       .  A
O19          V24   1.900       .  S
O20         C459   1.263       .  A
O20          V24   1.900       .  S
O21          C26   1.263       .  A
O21          V24   1.900       .  S
O22          C25   1.263       .  A
O22         V456   1.900   1_455  S
V23         O448   1.900   1_455  S
V23         V456   2.091   1_455  T
V24         O454   1.900       .  S
V24         V455   2.091       .  T
C25         C205   1.434       .  S
C26         C204   1.434       .  S
C27         O452   1.263   1_455  A
C27         C208   1.434       .  S
C28         O451   1.263   1_455  A
C28         C201   1.434       .  S
O29          C39   1.263       .  A
O29          V37   1.900       .  S
O30          C40   1.263       .  A
O30         V253   1.900       .  S
O31          C41   1.263   1_545  A
O31          V37   1.900       .  S
O32          C42   1.263       .  A
O32          V37   1.900       .  S
O33         C258   1.263       .  A
O33          V38   1.900       .  S
O34         C257   1.263       .  A
O34          V38   1.900       .  S
O35          C40   1.263       .  A
O35          V38   1.900       .  S
O36          C39   1.263       .  A
O36         V254   1.900   1_545  S
V37         O246   1.900   1_545  S
V37         V254   2.091   1_545  T
V38         O252   1.900       .  S
V38         V253   2.091       .  T
C39         C203   1.434       .  S
C40         C206   1.434       .  S
C41         O250   1.263       .  A
C41         C197   1.434   1_565  S
C42         O249   1.263   1_545  A
C42         C416   1.434       .  S
O43          C53   1.263       .  A
O43          V51   1.899       .  S
O44          C54   1.263       .  A
O44          V51   1.899       .  S
O45          C55   1.263       .  A
O45          V51   1.900       .  S
O46          C56   1.263       .  A
O46          V51   1.900       .  S
O47          C56   1.263       .  A
O47          V52   1.900       .  S
O48          C55   1.263       .  A
O48          V52   1.900       .  S
O49          C54   1.263       .  A
O49          V52   1.900       .  S
O50          C53   1.263       .  A
O50          V52   1.900       .  S
V51          V52   2.091       .  T
C53         C214   1.434       .  S
C54         C211   1.434       .  S
C55         C194   1.434       .  S
C56         C195   1.434       .  S
O57         C283   1.263       .  A
O57         V497   1.900       .  S
O58         C284   1.263       .  A
O58          V65   1.900       .  S
O59          C69   1.263   1_545  A
O59          V65   1.900       .  S
O60          C70   1.263       .  A
O60          V65   1.900   1_554  S
O61         C718   1.263       .  A
O61          V66   1.900   1_554  S
O62         C717   1.263       .  A
O62          V66   1.900       .  S
O63          C68   1.263       .  A
O63         V498   1.900   1_455  S
O64          C67   1.263       .  A
O64          V66   1.900   1_554  S
V65         O489   1.900   1_455  S
V65         V714   2.091   1_445  T
V66         O495   1.900       .  S
V66         V713   2.091   1_556  T
C67         O273   1.263       .  A
C67         C187   1.434       .  S
C68         O274   1.263       .  A
C68         C190   1.434       .  S
C69         O710   1.263   1_455  A
C69         C192   1.434       .  S
C70         O709   1.263   1_445  A
C70         C215   1.434       .  S
O71          C81   1.263       .  A
O71          V79   1.900       .  S
O72          C82   1.263       .  A
O72          V79   1.900   1_554  S
O73          C83   1.263       .  A
O73          V79   1.900   1_554  S
O74          C84   1.263       .  A
O74         V511   1.900       .  S
O75          C84   1.263       .  A
O75          V80   1.900       .  S
O76          C83   1.263   1_556  A
O76         V512   1.900   1_455  S
O77         C514   1.263       .  A
O77          V80   1.900   1_554  S
O78         C513   1.263       .  A
O78          V80   1.900       .  S
V79         O506   1.900   1_455  S
V79         V512   2.091   1_455  T
V80         O508   1.900       .  S
V80         V511   2.091       .  T
C81         O510   1.263   1_455  A
C81         C185   1.434       .  S
C82         O509   1.263   1_455  A
C82         C207   1.434   1_455  S
C83         C184   1.434       .  S
C84         C182   1.434       .  S
O85         C311   1.263       .  A
O85          V93   1.900       .  S
O86         C312   1.263   1_554  A
O86          V93   1.900       .  S
O87          C97   1.263       .  A
O87          V93   1.900   1_556  S
O88          C98   1.263       .  A
O88          V93   1.900       .  S
O89         C314   1.263       .  A
O89          V94   1.900   1_554  S
O90         C313   1.263       .  A
O90          V94   1.900       .  S
O91          C96   1.263   1_556  A
O91          V94   1.900       .  S
O92          C95   1.263       .  A
O92          V94   1.900       .  S
V93         V310   2.091   1_554  T
V94         V309   2.091   1_545  T
C95         O301   1.263   1_545  A
C95         C188   1.434       .  S
C96         O302   1.263   1_545  A
C96         C189   1.434       .  S
C97         O306   1.263       .  A
C97         C179   1.434       .  S
C98         O305   1.263       .  A
C98         C199   1.434       .  S
O99         C109   1.263       .  A
O99         V107   1.900       .  S
O100        C110   1.263   1_556  A
O100        V107   1.900       .  S
O101        C111   1.263       .  A
O101        V107   1.900   1_554  S
O102        C112   1.263       .  A
O102        V107   1.900       .  S
O103        C112   1.263       .  A
O103        V108   1.900       .  S
O104        C111   1.263       .  A
O104        V108   1.900   1_554  S
O105        C110   1.263       .  A
O105        V108   1.900   1_554  S
O106        C109   1.263       .  A
O106        V108   1.900       .  S
V107        V108   2.091       .  T
C109        C181   1.434       .  S
C110        C183   1.434       .  S
C111        C196   1.434       .  S
C112        C178   1.434       .  S
O113        C123   1.263   1_455  A
O113        V337   1.900       .  S
O114        C124   1.263       .  A
O114        V121   1.900       .  S
O115        C125   1.263   1_545  A
O115        V121   1.900       .  S
O116        C126   1.263       .  A
O116        V121   1.900       .  S
O117        C774   1.263       .  A
O117        V122   1.900       .  S
O118        C773   1.263       .  A
O118        V122   1.900       .  S
O119        C556   1.263       .  A
O119        V338   1.900   1_545  S
O120        C555   1.263       .  A
O120        V122   1.900       .  S
V121        O329   1.900   1_545  S
V121        V770   2.091   1_445  T
V122        O335   1.900       .  S
V122        V769   2.091       .  T
C123        O552   1.263       .  A
C123        C173   1.434       .  S
C124        O551   1.263   1_455  A
C124        C176   1.434       .  S
C125        O766   1.263   1_455  A
C125        C191   1.434       .  S
C126        O765   1.263   1_445  A
C126        C210   1.434       .  S
O127        C569   1.263       .  A
O127        V135   1.900       .  S
O128        C570   1.263       .  A
O128        V135   1.900       .  S
O129        C139   1.263       .  A
O129        V135   1.900       .  S
O130        C140   1.263       .  A
O130        V135   1.900       .  S
O131        C572   1.263   1_455  A
O131        V136   1.900       .  S
O132        C571   1.263   1_455  A
O132        V136   1.900       .  S
O133        C138   1.263   1_455  A
O133        V136   1.900       .  S
O134        C137   1.263   1_455  A
O134        V136   1.900       .  S
V135        V568   2.091       .  T
V136        V567   2.091   1_455  T
C137        O559   1.263       .  A
C137        C174   1.434       .  S
C138        O560   1.263       .  A
C138        C175   1.434       .  S
C139        O564   1.263       .  A
C139        C186   1.434       .  S
C140        O563   1.263       .  A
C140        C634   1.434       .  S
O141        C367   1.263   1_545  A
O141        V149   1.900       .  S
O142        C368   1.263       .  A
O142        V149   1.900       .  S
O143        C153   1.263       .  A
O143        V149   1.900       .  S
O144        C154   1.263       .  A
O144        V365   1.900       .  S
O145        C154   1.263       .  A
O145        V150   1.900       .  S
O146        C153   1.263       .  A
O146        V366   1.900   1_545  S
O147        C152   1.263       .  A
O147        V150   1.900       .  S
O148        C151   1.263       .  A
O148        V150   1.900       .  S
V149        O360   1.900   1_545  S
V149        V366   2.091   1_545  T
V150        O362   1.900       .  S
V150        V365   2.091       .  T
C151        O357   1.263       .  A
C151        C180   1.434       .  S
C152        O358   1.263       .  A
C152        C198   1.434       .  S
C153        C171   1.434       .  S
C154        C169   1.434       .  S
O155        C165   1.263       .  A
O155        V163   1.900       .  S
O156        C166   1.263       .  A
O156        V163   1.900       .  S
O157        C167   1.263       .  A
O157        V163   1.900       .  S
O158        C168   1.263       .  A
O158        V163   1.900       .  S
O159        C168   1.263       .  A
O159        V164   1.900       .  S
O160        C167   1.263       .  A
O160        V164   1.900       .  S
O161        C166   1.263       .  A
O161        V164   1.900       .  S
O162        C165   1.263       .  A
O162        V164   1.900       .  S
V163        V164   2.091       .  T
C165        C170   1.434       .  S
C166        C172   1.434       .  S
C167        C193   1.434       .  S
C168        C177   1.434       .  S
C169        C170   1.205       .  T
C171        C172   1.205       .  T
C173        C174   1.205       .  T
C175        C176   1.205   1_655  T
C177        C178   1.205       .  T
C179        C180   1.205       .  T
C181        C182   1.205       .  T
C183        C184   1.205       .  T
C185        C618   1.205   1_455  T
C186        C617   1.205       .  T
C187        C404   1.205       .  T
C188        C403   1.205       .  T
C189        C406   1.205       .  T
C190        C405   1.205       .  T
C191        C192   1.205       .  T
C193        C194   1.205       .  T
C195        C196   1.205       .  T
C197        C414   1.205       .  T
C198        C413   1.205       .  T
C199        C200   1.205       .  T
C200        C258   1.434       .  S
C201        C202   1.205   1_455  T
C202        C572   1.434       .  S
C203        C204   1.205       .  T
C205        C206   1.205       .  T
C207        C208   1.205   1_655  T
C209        C229   1.434   1_545  S
C209        C210   1.205       .  T
C211        C212   1.205       .  T
C213        C214   1.205       .  T
C215        C216   1.205   1_545  T
C216        C230   1.434       .  S
O217        C227   1.263       .  A
O217        V657   1.900       .  S
O218        C228   1.263       .  A
O219        C229   1.263       .  A
O219        V225   1.900       .  S
O220        C230   1.263       .  A
O220        V225   1.900       .  S
O221        C446   1.263       .  A
O221        V226   1.900       .  S
O222        C445   1.263       .  A
O222        V226   1.900       .  S
O223        C228   1.263       .  A
O223        V658   1.900   1_455  S
O224        C227   1.263       .  A
V225        O649   1.900   1_455  S
V225        V442   2.091   1_465  T
V226        O655   1.900       .  S
V226        V441   2.091       .  T
C227        C428   1.434       .  S
C228        C429   1.434       .  S
C229        O438   1.263   1_465  A
C230        O437   1.263   1_465  A
O231        C241   1.263       .  A
O231        V239   1.900       .  S
O232        C242   1.263       .  A
O232        V671   1.900       .  S
O233        C243   1.263       .  A
O233        V239   1.900       .  S
O234        C244   1.263       .  A
O234        V239   1.900       .  S
O235        C676   1.263       .  A
O235        V240   1.900       .  S
O236        C675   1.263       .  A
O236        V240   1.900       .  S
O237        C242   1.263       .  A
O237        V240   1.900       .  S
O238        C241   1.263       .  A
O238        V672   1.900   1_455  S
V239        O664   1.900   1_455  S
V239        V672   2.091   1_455  T
V240        O670   1.900       .  S
V240        V671   2.091       .  T
C241        C421   1.434       .  S
C242        C420   1.434       .  S
C243        O668   1.263   1_455  A
C243        C424   1.434       .  S
C244        O667   1.263   1_455  A
C244        C417   1.434       .  S
O245        C255   1.263       .  A
O245        V253   1.900       .  S
O246        C256   1.263       .  A
O247        C257   1.263       .  A
O247        V253   1.900       .  S
O248        C258   1.263       .  A
O248        V253   1.900       .  S
O249        V254   1.900       .  S
O250        V254   1.900       .  S
O251        C256   1.263       .  A
O251        V254   1.900       .  S
O252        C255   1.263       .  A
C255        C419   1.434       .  S
C256        C422   1.434       .  S
C257        C413   1.434       .  S
O259        C269   1.263       .  A
O259        V267   1.900       .  S
O260        C270   1.263       .  A
O260        V267   1.900       .  S
O261        C271   1.263       .  A
O261        V267   1.900       .  S
O262        C272   1.263       .  A
O262        V267   1.900       .  S
O263        C272   1.263       .  A
O263        V268   1.900       .  S
O264        C271   1.263       .  A
O264        V268   1.900       .  S
O265        C270   1.263       .  A
O265        V268   1.900       .  S
O266        C269   1.263       .  A
O266        V268   1.900       .  S
V267        V268   2.091       .  T
C269        C430   1.434       .  S
C270        C427   1.434       .  S
C271        C410   1.434       .  S
C272        C411   1.434       .  S
O273        V713   1.900       .  S
O274        V281   1.900   1_556  S
O275        C285   1.263   1_455  A
O275        V281   1.900   1_556  S
O276        C286   1.263       .  A
O276        V281   1.900       .  S
O277        C502   1.263   1_565  A
O277        V282   1.900   1_554  S
O278        C501   1.263       .  A
O278        V282   1.900       .  S
O279        C284   1.263   1_565  A
O279        V714   1.900   1_455  S
O280        C283   1.263   1_564  A
O280        V282   1.900   1_554  S
V281        O705   1.900   1_455  S
V281        V498   2.091   1_454  T
V282        O711   1.900       .  S
V282        V497   2.091   1_565  T
C283        C403   1.434       .  S
C284        C406   1.434   1_556  S
C285        O494   1.263       .  A
C285        C408   1.434       .  S
C286        O493   1.263   1_455  A
C286        C431   1.434   1_455  S
O287        C297   1.263       .  A
O287        V295   1.900       .  S
O288        C298   1.263       .  A
O288        V295   1.900   1_554  S
O289        C299   1.263   1_554  A
O289        V295   1.900   1_554  S
O290        C300   1.263       .  A
O290        V727   1.900       .  S
O291        C300   1.263       .  A
O291        V296   1.900       .  S
O292        C299   1.263       .  A
O292        V728   1.900   1_455  S
O293        C730   1.263       .  A
O293        V296   1.900   1_554  S
O294        C729   1.263       .  A
O294        V296   1.900       .  S
V295        O722   1.900   1_455  S
V295        V728   2.091   1_455  T
V296        O724   1.900       .  S
V296        V727   2.091       .  T
C297        O726   1.263   1_455  A
C297        C401   1.434       .  S
C298        O725   1.263   1_455  A
C298        C423   1.434       .  S
C299        C400   1.434   1_556  S
C300        C398   1.434       .  S
O301        V309   1.900       .  S
O302        V309   1.900   1_554  S
O303        C313   1.263   1_565  A
O303        V309   1.900       .  S
O304        C314   1.263   1_565  A
O304        V309   1.900   1_554  S
O305        V310   1.900   1_554  S
O306        V310   1.900       .  S
O307        C312   1.263       .  A
O307        V310   1.900       .  S
O308        C311   1.263   1_556  A
O308        V310   1.900       .  S
C311        C404   1.434       .  S
C312        C405   1.434       .  S
C313        C395   1.434       .  S
C314        C415   1.434       .  S
O315        C325   1.263       .  A
O315        V323   1.900       .  S
O316        C326   1.263       .  A
O316        V323   1.900       .  S
O317        C327   1.263       .  A
O317        V323   1.900   1_554  S
O318        C328   1.263       .  A
O318        V323   1.900       .  S
O319        C328   1.263       .  A
O319        V324   1.900       .  S
O320        C327   1.263       .  A
O320        V324   1.900   1_554  S
O321        C326   1.263   1_554  A
O321        V324   1.900   1_554  S
O322        C325   1.263       .  A
O322        V324   1.900       .  S
V323        V324   2.091       .  T
C325        C397   1.434       .  S
C326        C399   1.434   1_556  S
C327        C412   1.434       .  S
C328        C394   1.434       .  S
O329        C339   1.263       .  A
O330        C340   1.263   1_455  A
O330        V337   1.900       .  S
O331        C341   1.263   1_455  A
O331        V337   1.900       .  S
O332        C342   1.263   1_455  A
O332        V337   1.900       .  S
O333        C558   1.263   1_565  A
O333        V338   1.900       .  S
O334        C557   1.263       .  A
O334        V338   1.900       .  S
O335        C772   1.263       .  A
O336        C771   1.263       .  A
O336        V338   1.900       .  S
V337        V554   2.091   1_455  T
V338        V553   2.091   1_565  T
C339        O768   1.263   1_455  A
C339        C389   1.434       .  S
C340        O767   1.263       .  A
C340        C392   1.434       .  S
C341        O550   1.263       .  A
C341        C407   1.434       .  S
C342        O549   1.263       .  A
C342        C426   1.434       .  S
O343        C785   1.263       .  A
O343        V351   1.900       .  S
O344        C786   1.263       .  A
O344        V351   1.900       .  S
O345        C355   1.263       .  A
O345        V351   1.900       .  S
O346        C356   1.263       .  A
O346        V351   1.900       .  S
O347        C788   1.263   1_455  A
O347        V352   1.900       .  S
O348        C787   1.263   1_455  A
O348        V352   1.900       .  S
O349        C354   1.263   1_455  A
O349        V352   1.900       .  S
O350        C353   1.263   1_455  A
O350        V352   1.900       .  S
V351        V784   2.091       .  T
V352        V783   2.091   1_455  T
C353        O775   1.263       .  A
C353        C390   1.434   1_655  S
C354        O776   1.263       .  A
C354        C391   1.434       .  S
C355        O780   1.263       .  A
C355        C402   1.434       .  S
C356        O779   1.263       .  A
C356        C850   1.434       .  S
O357        V365   1.900       .  S
O358        V365   1.900       .  S
O359        C369   1.263       .  A
O359        V365   1.900       .  S
O360        C370   1.263       .  A
O361        C370   1.263       .  A
O361        V366   1.900       .  S
O362        C369   1.263       .  A
O363        C368   1.263   1_565  A
O363        V366   1.900       .  S
O364        C367   1.263       .  A
O364        V366   1.900       .  S
C367        C396   1.434       .  S
C368        C414   1.434       .  S
C369        C387   1.434       .  S
C370        C385   1.434       .  S
O371        C381   1.263       .  A
O371        V379   1.900       .  S
O372        C382   1.263       .  A
O372        V379   1.900       .  S
O373        C383   1.263       .  A
O373        V379   1.900       .  S
O374        C384   1.263       .  A
O374        V379   1.900       .  S
O375        C384   1.263       .  A
O375        V380   1.900       .  S
O376        C383   1.263       .  A
O376        V380   1.900       .  S
O377        C382   1.263       .  A
O377        V380   1.900       .  S
O378        C381   1.263       .  A
O378        V380   1.900       .  S
V379        V380   2.091       .  T
C381        C386   1.434       .  S
C382        C388   1.434       .  S
C383        C409   1.434       .  S
C384        C393   1.434       .  S
C385        C386   1.205       .  T
C387        C388   1.205       .  T
C389        C390   1.205       .  T
C391        C392   1.205       .  T
C393        C394   1.205       .  T
C395        C396   1.205   1_545  T
C397        C398   1.205       .  T
C399        C400   1.205       .  T
C401        C834   1.205   1_455  T
C402        C833   1.205       .  T
C407        C408   1.205       .  T
C409        C410   1.205       .  T
C411        C412   1.205       .  T
C415        C416   1.205       .  T
C417        C418   1.205   1_455  T
C418        C788   1.434       .  S
C419        C420   1.205       .  T
C421        C422   1.205       .  T
C423        C424   1.205       .  T
C425        C426   1.205       .  T
C427        C428   1.205       .  T
C429        C430   1.205       .  T
C431        C432   1.205   1_655  T
O433        C443   1.263       .  A
O434        C444   1.263       .  A
O434        V657   1.900   1_545  S
O435        C445   1.263       .  A
O435        V441   1.900       .  S
O436        C446   1.263       .  A
O436        V441   1.900       .  S
O437        V442   1.900       .  S
O438        V442   1.900       .  S
O439        C444   1.263       .  A
O440        C443   1.263       .  A
O440        V658   1.899       .  S
V441        O650   1.900       .  S
V442        O656   1.900   1_545  S
C443        C644   1.434       .  S
C444        C645   1.434       .  S
C445        C857   1.434       .  S
C446        C864   1.434       .  S
O447        C457   1.263       .  A
O447        V455   1.900       .  S
O448        C458   1.263       .  A
O449        C459   1.263       .  A
O449        V455   1.900       .  S
O450        C460   1.263       .  A
O450        V455   1.900       .  S
O451        V456   1.900       .  S
O452        V456   1.900       .  S
O453        C458   1.263       .  A
O453        V456   1.900       .  S
O454        C457   1.263       .  A
C457        C637   1.434       .  S
C458        C636   1.434       .  S
C459        C640   1.434       .  S
C460        C633   1.434       .  S
O461        C471   1.263       .  A
O461        V469   1.900       .  S
O462        C472   1.263       .  A
O462        V685   1.900       .  S
O463        C473   1.263   1_545  A
O463        V469   1.900       .  S
O464        C474   1.263       .  A
O464        V469   1.900       .  S
O465        C690   1.263       .  A
O465        V470   1.900       .  S
O466        C689   1.263       .  A
O466        V470   1.900       .  S
O467        C472   1.263       .  A
O467        V470   1.900       .  S
O468        C471   1.263       .  A
O468        V686   1.900   1_545  S
V469        O678   1.900   1_545  S
V469        V686   2.091   1_545  T
V470        O684   1.900       .  S
V470        V685   2.091       .  T
C471        C635   1.434       .  S
C472        C638   1.434       .  S
C473        O682   1.263       .  A
C473        C629   1.434   1_565  S
C474        O681   1.263   1_545  A
C474        C848   1.434       .  S
O475        C485   1.263       .  A
O475        V483   1.899       .  S
O476        C486   1.263       .  A
O476        V483   1.899       .  S
O477        C487   1.263       .  A
O477        V483   1.900       .  S
O478        C488   1.263       .  A
O478        V483   1.900       .  S
O479        C488   1.263       .  A
O479        V484   1.900       .  S
O480        C487   1.263       .  A
O480        V484   1.900       .  S
O481        C486   1.263       .  A
O481        V484   1.900       .  S
O482        C485   1.263       .  A
O482        V484   1.900       .  S
V483        V484   2.091       .  T
C485        C646   1.434       .  S
C486        C643   1.434       .  S
C487        C626   1.434       .  S
C488        C627   1.434       .  S
O489        C715   1.263       .  A
O490        C716   1.263       .  A
O490        V497   1.900       .  S
O491        C501   1.263   1_545  A
O491        V497   1.900       .  S
O492        C502   1.263       .  A
O492        V497   1.900   1_554  S
O493        V498   1.900   1_554  S
O494        V498   1.900       .  S
O495        C500   1.263       .  A
O496        C499   1.263       .  A
O496        V498   1.900   1_554  S
C499        O705   1.263       .  A
C499        C619   1.434       .  S
C500        O706   1.263       .  A
C500        C622   1.434       .  S
C501        C624   1.434       .  S
C502        C647   1.434       .  S
O503        C513   1.263       .  A
O503        V511   1.900       .  S
O504        C514   1.263       .  A
O504        V511   1.900   1_554  S
O505        C515   1.263       .  A
O505        V511   1.900   1_554  S
O506        C516   1.263       .  A
O507        C516   1.263       .  A
O507        V512   1.900       .  S
O508        C515   1.263   1_556  A
O509        V512   1.900   1_554  S
O510        V512   1.900       .  S
C513        C617   1.434       .  S
C514        C639   1.434       .  S
C515        C616   1.434       .  S
C516        C614   1.434       .  S
O517        C743   1.263       .  A
O517        V525   1.900       .  S
O518        C744   1.263   1_554  A
O518        V525   1.900       .  S
O519        C529   1.263       .  A
O519        V525   1.900   1_556  S
O520        C530   1.263       .  A
O520        V525   1.900       .  S
O521        C746   1.263       .  A
O521        V526   1.900   1_554  S
O522        C745   1.263       .  A
O522        V526   1.900       .  S
O523        C528   1.263   1_556  A
O523        V526   1.900       .  S
O524        C527   1.263       .  A
O524        V526   1.900       .  S
V525        V742   2.091   1_554  T
V526        V741   2.091   1_545  T
C527        O733   1.263   1_545  A
C527        C620   1.434       .  S
C528        O734   1.263   1_545  A
C528        C621   1.434       .  S
C529        O738   1.263       .  A
C529        C611   1.434       .  S
C530        O737   1.263       .  A
C530        C631   1.434       .  S
O531        C541   1.263       .  A
O531        V539   1.900       .  S
O532        C542   1.263   1_556  A
O532        V539   1.900       .  S
O533        C543   1.263       .  A
O533        V539   1.900   1_554  S
O534        C544   1.263       .  A
O534        V539   1.900       .  S
O535        C544   1.263       .  A
O535        V540   1.900       .  S
O536        C543   1.263       .  A
O536        V540   1.900   1_554  S
O537        C542   1.263       .  A
O537        V540   1.900   1_554  S
O538        C541   1.263       .  A
O538        V540   1.900       .  S
V539        V540   2.091       .  T
C541        C613   1.434       .  S
C542        C615   1.434       .  S
C543        C628   1.434       .  S
C544        C610   1.434       .  S
O545        C555   1.263       .  A
O545        V769   1.900       .  S
O546        C556   1.263       .  A
O546        V553   1.900       .  S
O547        C557   1.263   1_545  A
O547        V553   1.900       .  S
O548        C558   1.263       .  A
O548        V553   1.900       .  S
O549        V554   1.900       .  S
O550        V554   1.900       .  S
O551        V770   1.900   1_545  S
O552        V554   1.900       .  S
V553        O761   1.900   1_545  S
V554        O767   1.900       .  S
C555        C605   1.434       .  S
C556        C608   1.434       .  S
C557        C623   1.434       .  S
C558        C642   1.434       .  S
O559        V567   1.900       .  S
O560        V567   1.900       .  S
O561        C571   1.263       .  A
O561        V567   1.900       .  S
O562        C572   1.263       .  A
O562        V567   1.900       .  S
O563        V568   1.900       .  S
O564        V568   1.900       .  S
O565        C570   1.263       .  A
O565        V568   1.900       .  S
O566        C569   1.263       .  A
O566        V568   1.900       .  S
C569        C606   1.434       .  S
C570        C607   1.434       .  S
C571        C618   1.434       .  S
O573        C799   1.263   1_545  A
O573        V581   1.900       .  S
O574        C800   1.263       .  A
O574        V581   1.900       .  S
O575        C585   1.263       .  A
O575        V581   1.900       .  S
O576        C586   1.263       .  A
O576        V797   1.900       .  S
O577        C586   1.263       .  A
O577        V582   1.900       .  S
O578        C585   1.263       .  A
O578        V798   1.900   1_545  S
O579        C584   1.263       .  A
O579        V582   1.900       .  S
O580        C583   1.263       .  A
O580        V582   1.900       .  S
V581        O792   1.900   1_545  S
V581        V798   2.091   1_545  T
V582        O794   1.900       .  S
V582        V797   2.091       .  T
C583        O789   1.263       .  A
C583        C612   1.434       .  S
C584        O790   1.263       .  A
C584        C630   1.434       .  S
C585        C603   1.434       .  S
C586        C601   1.434       .  S
O587        C597   1.263       .  A
O587        V595   1.900       .  S
O588        C598   1.263       .  A
O588        V595   1.900       .  S
O589        C599   1.263       .  A
O589        V595   1.900       .  S
O590        C600   1.263       .  A
O590        V595   1.900       .  S
O591        C600   1.263       .  A
O591        V596   1.900       .  S
O592        C599   1.263       .  A
O592        V596   1.900       .  S
O593        C598   1.263       .  A
O593        V596   1.900       .  S
O594        C597   1.263       .  A
O594        V596   1.900       .  S
V595        V596   2.091       .  T
C597        C602   1.434       .  S
C598        C604   1.434       .  S
C599        C625   1.434       .  S
C600        C609   1.434       .  S
C601        C602   1.205       .  T
C603        C604   1.205       .  T
C605        C606   1.205       .  T
C607        C608   1.205       .  T
C609        C610   1.205       .  T
C611        C612   1.205       .  T
C613        C614   1.205       .  T
C615        C616   1.205       .  T
C619        C836   1.205       .  T
C620        C835   1.205       .  T
C621        C838   1.205       .  T
C622        C837   1.205       .  T
C623        C624   1.205       .  T
C625        C626   1.205       .  T
C627        C628   1.205       .  T
C629        C846   1.205       .  T
C630        C845   1.205       .  T
C631        C632   1.205       .  T
C632        C690   1.434       .  S
C633        C634   1.205       .  T
C635        C636   1.205       .  T
C637        C638   1.205       .  T
C639        C640   1.205       .  T
C641        C661   1.434   1_545  S
C641        C642   1.205       .  T
C643        C644   1.205       .  T
C645        C646   1.205       .  T
C647        C648   1.205   1_545  T
C648        C662   1.434       .  S
O649        C659   1.263       .  A
O650        C660   1.263       .  A
O651        C661   1.263       .  A
O651        V657   1.900       .  S
O652        C662   1.263       .  A
O652        V657   1.900       .  S
O653        V658   1.900       .  S
O654        V658   1.900       .  S
O655        C660   1.263       .  A
O656        C659   1.263       .  A
C659        C860   1.434       .  S
C660        C861   1.434       .  S
O663        C673   1.263       .  A
O663        V671   1.900       .  S
O664        C674   1.263       .  A
O665        C675   1.263       .  A
O665        V671   1.900       .  S
O666        C676   1.263       .  A
O666        V671   1.900       .  S
O667        V672   1.900       .  S
O668        V672   1.900       .  S
O669        C674   1.263       .  A
O669        V672   1.900       .  S
O670        C673   1.263       .  A
C673        C853   1.434       .  S
C674        C852   1.434       .  S
C675        C856   1.434       .  S
C676        C849   1.434       .  S
O677        C687   1.263       .  A
O677        V685   1.900       .  S
O678        C688   1.263       .  A
O679        C689   1.263       .  A
O679        V685   1.900       .  S
O680        C690   1.263       .  A
O680        V685   1.900       .  S
O681        V686   1.900       .  S
O682        V686   1.900       .  S
O683        C688   1.263       .  A
O683        V686   1.900       .  S
O684        C687   1.263       .  A
C687        C851   1.434       .  S
C688        C854   1.434       .  S
C689        C845   1.434       .  S
O691        C701   1.263       .  A
O691        V699   1.900       .  S
O692        C702   1.263       .  A
O692        V699   1.900       .  S
O693        C703   1.263       .  A
O693        V699   1.900       .  S
O694        C704   1.263       .  A
O694        V699   1.900       .  S
O695        C704   1.263       .  A
O695        V700   1.900       .  S
O696        C703   1.263       .  A
O696        V700   1.900       .  S
O697        C702   1.263       .  A
O697        V700   1.900       .  S
O698        C701   1.263       .  A
O698        V700   1.900       .  S
V699        V700   2.091       .  T
C701        C862   1.434       .  S
C702        C859   1.434       .  S
C703        C842   1.434       .  S
C704        C843   1.434       .  S
O706        V713   1.900   1_556  S
O707        C717   1.263       .  A
O707        V713   1.900   1_556  S
O708        C718   1.263       .  A
O708        V713   1.900       .  S
O709        V714   1.900   1_554  S
O710        V714   1.900       .  S
O711        C716   1.263   1_565  A
O712        C715   1.263   1_564  A
O712        V714   1.900   1_554  S
C715        C835   1.434       .  S
C716        C838   1.434   1_556  S
C717        C840   1.434       .  S
C718        C863   1.434       .  S
O719        C729   1.263       .  A
O719        V727   1.900       .  S
O720        C730   1.263       .  A
O720        V727   1.900   1_554  S
O721        C731   1.263   1_554  A
O721        V727   1.900   1_554  S
O722        C732   1.263       .  A
O723        C732   1.263       .  A
O723        V728   1.900       .  S
O724        C731   1.263       .  A
O725        V728   1.900   1_554  S
O726        V728   1.900       .  S
C729        C833   1.434       .  S
C730        C855   1.434       .  S
C731        C832   1.434   1_556  S
C732        C830   1.434       .  S
O733        V741   1.900       .  S
O734        V741   1.900   1_554  S
O735        C745   1.263   1_565  A
O735        V741   1.900       .  S
O736        C746   1.263   1_565  A
O736        V741   1.900   1_554  S
O737        V742   1.900   1_554  S
O738        V742   1.900       .  S
O739        C744   1.263       .  A
O739        V742   1.900       .  S
O740        C743   1.263   1_556  A
O740        V742   1.900       .  S
C743        C836   1.434       .  S
C744        C837   1.434       .  S
C745        C827   1.434       .  S
C746        C847   1.434       .  S
O747        C757   1.263       .  A
O747        V755   1.900       .  S
O748        C758   1.263       .  A
O748        V755   1.900       .  S
O749        C759   1.263       .  A
O749        V755   1.900   1_554  S
O750        C760   1.263       .  A
O750        V755   1.900       .  S
O751        C760   1.263       .  A
O751        V756   1.900       .  S
O752        C759   1.263       .  A
O752        V756   1.900   1_554  S
O753        C758   1.263   1_554  A
O753        V756   1.900   1_554  S
O754        C757   1.263       .  A
O754        V756   1.900       .  S
V755        V756   2.091       .  T
C757        C829   1.434       .  S
C758        C831   1.434   1_556  S
C759        C844   1.434       .  S
C760        C826   1.434       .  S
O761        C771   1.263       .  A
O762        C772   1.263       .  A
O762        V769   1.900       .  S
O763        C773   1.263       .  A
O763        V769   1.900       .  S
O764        C774   1.263       .  A
O764        V769   1.900       .  S
O765        V770   1.900       .  S
O766        V770   1.900       .  S
O768        V770   1.900       .  S
C771        C821   1.434       .  S
C772        C824   1.434       .  S
C773        C839   1.434       .  S
C774        C858   1.434       .  S
O775        V783   1.900       .  S
O776        V783   1.900       .  S
O777        C787   1.263       .  A
O777        V783   1.900       .  S
O778        C788   1.263       .  A
O778        V783   1.900       .  S
O779        V784   1.900       .  S
O780        V784   1.900       .  S
O781        C786   1.263       .  A
O781        V784   1.900       .  S
O782        C785   1.263       .  A
O782        V784   1.900       .  S
C785        C822   1.434       .  S
C786        C823   1.434       .  S
C787        C834   1.434       .  S
O789        V797   1.900       .  S
O790        V797   1.900       .  S
O791        C801   1.263       .  A
O791        V797   1.900       .  S
O792        C802   1.263       .  A
O793        C802   1.263       .  A
O793        V798   1.900       .  S
O794        C801   1.263       .  A
O795        C800   1.263   1_565  A
O795        V798   1.900       .  S
O796        C799   1.263       .  A
O796        V798   1.900       .  S
C799        C828   1.434       .  S
C800        C846   1.434       .  S
C801        C819   1.434       .  S
C802        C817   1.434       .  S
O803        C813   1.263       .  A
O803        V811   1.900       .  S
O804        C814   1.263       .  A
O804        V811   1.900       .  S
O805        C815   1.263       .  A
O805        V811   1.900       .  S
O806        C816   1.263       .  A
O806        V811   1.900       .  S
O807        C816   1.263       .  A
O807        V812   1.900       .  S
O808        C815   1.263       .  A
O808        V812   1.900       .  S
O809        C814   1.263       .  A
O809        V812   1.900       .  S
O810        C813   1.263       .  A
O810        V812   1.900       .  S
V811        V812   2.091       .  T
C813        C818   1.434       .  S
C814        C820   1.434       .  S
C815        C841   1.434       .  S
C816        C825   1.434       .  S
C817        C818   1.205       .  T
C819        C820   1.205       .  T
C821        C822   1.205       .  T
C823        C824   1.205       .  T
C825        C826   1.205       .  T
C827        C828   1.205   1_545  T
C829        C830   1.205       .  T
C831        C832   1.205       .  T
C839        C840   1.205       .  T
C841        C842   1.205       .  T
C843        C844   1.205       .  T
C847        C848   1.205       .  T
C849        C850   1.205       .  T
C851        C852   1.205       .  T
C853        C854   1.205       .  T
C855        C856   1.205       .  T
C857        C858   1.205       .  T
C859        C860   1.205       .  T
C861        C862   1.205       .  T
C863        C864   1.205       .  T
