geometry optimzed in LAMMPS
_audit_creation_date              2020-12-01 
_audit_creation_method            'lammps2cif' 
_symmetry_space_group_name_H-M    'P1' 
_symmetry_Int_Tables_number       1 
_symmetry_cell_setting            triclinic 
loop_ 
_symmetry_equiv_pos_as_xyz 
  x,y,z 
_cell_length_a                    45.2845034 
_cell_length_b                    45.239263753967904 
_cell_length_c                    36.61218401642527 
_cell_angle_alpha                 89.97066255458549 
_cell_angle_beta                  89.98784455136423 
_cell_angle_gamma                 120.0948996076543 
loop_ 
_atom_site_label 
_atom_site_type_symbol 
_atom_site_fract_x 
_atom_site_fract_y 
_atom_site_fract_z 
_atom_site_charge 
C1          C  0.46575976  0.48395727  0.11850055     0.80100
N2          N  0.48345192  0.01873081  0.11852865    -0.78200
C3          C  0.01819555  0.03610026  0.11844969     0.82600
N4          N  0.03523839  0.01843234  0.11840341    -0.78100
C5          C  0.01778603  0.48365337  0.11835258     0.82700
N6          N  0.48305539  0.46654707  0.11843729    -0.79000
C7          C  0.14973275  0.35190497  0.11998872     0.80100
N8          N  0.13268411  0.31729135  0.11987833    -0.78200
C9          C  0.15021457  0.30029431  0.11978019     0.82600
N10         N  0.18478086  0.31787935  0.11984496    -0.78100
C11         C  0.20184082  0.35247970  0.11994775     0.82700
N12         N  0.18432647  0.36952560  0.12003845    -0.79800
C13         C  0.34533121  0.32375611  0.05473382     0.80100
N14         N  0.34021443  0.29374159  0.06881700    -0.78200
C15         C  0.34672108  0.27271348  0.04816384     0.82600
N16         N  0.35912365  0.28223740  0.01392776    -0.78100
C17         C  0.36378473  0.31192036  0.49934881     0.82700
N18         N  0.35672482  0.33266593  0.01977575    -0.79800
O19         O  0.14374153  0.46424578  0.06403966    -0.78600
C20         C  0.13081736  0.37003427  0.12030820     0.82500
O21         O  0.03544957  0.37891212  0.04635883    -0.79700
O22         O  0.03497127  0.35602973  0.17782743    -0.81200
O23         O  0.11939842  0.46512094  0.19483950    -0.81000
O24         O  0.14298815  0.49853264  0.10729471    -0.79600
Zn25       Zn  0.11446803  0.41757279  0.08418077     1.55700
O26         O  0.11135044  0.41234774  0.19954522    -0.81000
Cd27       Cd  0.10266669  0.46397759  0.14044489     1.59700
Cd28       Cd  0.03634642  0.39738518  0.09980570     1.59600
O29         O  0.06503615  0.47765392  0.13557075    -0.81000
O30         O  0.08349209  0.41717907  0.11961920    -1.91500
Cd31       Cd  0.08246239  0.38565311  0.15664698     1.59900
O32         O  0.02321162  0.43563881  0.10259373    -0.80900
O33         O  0.10243846  0.35692208  0.13707558    -0.79600
C34         C  0.05898923  0.37666314  0.02927964     0.82900
C35         C  0.15355941  0.49386104  0.07667135     0.82600
O36         O  0.14294897  0.39849769  0.10373531    -0.78600
C37         C  0.12206593  0.44204348  0.21240368     0.83400
O38         O  0.08881679  0.38876721  0.04229287    -0.78600
C39         C  0.03638698  0.46460468  0.11881006     0.83500
C40         C  0.00568289  0.34704978  0.16498098     0.83900
O41         O  0.00156147  0.35804700  0.13431333    -0.81100
C42         C  0.18913009  0.05399061  0.49930389     0.80100
N43         N  0.16831252  0.02586673  0.01940354    -0.78200
C44         C  0.17684306  0.02326439  0.05446127     0.82600
N45         N  0.20648563  0.04831848  0.06895052    -0.78100
C46         C  0.22752504  0.07618935  0.04867890     0.82700
N47         N  0.21848606  0.07917627  0.01428257    -0.79800
C48         C  0.47612382  0.32334739  0.18670900     0.80100
N49         N  0.45178177  0.29376673  0.17171277    -0.78200
C50         C  0.42492331  0.27069689  0.19195329     0.82600
N51         N  0.42202169  0.27798980  0.22725549    -0.78100
C52         C  0.44632673  0.30787932  0.24257852     0.82700
N53         N  0.47358899  0.33032669  0.22233013    -0.79800
O54         O  0.31391727  0.21970030  0.07789567    -0.78600
C55         C  0.25946780  0.10309049  0.06430911     0.82500
O56         O  0.28607105  0.16018159  0.19240178    -0.79700
O57         O  0.33326594  0.09805747  0.14015014    -0.81200
O58         O  0.40640024  0.18706213  0.07799644    -0.81000
O59         O  0.36781009  0.23600289  0.06356020    -0.79600
Zn60       Zn  0.29617822  0.17271625  0.09964300     1.55700
O61         O  0.36795333  0.13329635  0.06381990    -0.81000
Cd62       Cd  0.37598837  0.20495796  0.09889744     1.59700
Cd63       Cd  0.33356208  0.16758649  0.17380459     1.59600
O64         O  0.40271585  0.23708315  0.14010398    -0.81000
O65         O  0.33287151  0.16758314  0.11867346    -1.91500
Cd66       Cd  0.32828819  0.12497484  0.09882104     1.59900
O67         O  0.37375945  0.21547345  0.19194527    -0.80900
O68         O  0.28041535  0.09483973  0.07719282    -0.79600
C69         C  0.26294205  0.16228141  0.17436134     0.82900
C70         C  0.34246951  0.24097196  0.06364769     0.82600
O71         O  0.26490420  0.13360978  0.06588220    -0.78600
C72         C  0.39852443  0.15834092  0.06390746     0.83400
O73         O  0.26559902  0.16825738  0.14028826    -0.78600
C74         C  0.39890927  0.23914504  0.17417558     0.83500
C75         C  0.33940497  0.10202090  0.17416962     0.83900
O76         O  0.34122830  0.12734636  0.19184597    -0.81100
O77         O  0.31948033  0.35671662  0.06478514    -0.78600
C78         C  0.23892350  0.37123464  0.12024339     0.82500
O79         O  0.34343739  0.46583440  0.04647651    -0.79700
O80         O  0.32127753  0.46620042  0.17826639    -0.81200
O81         O  0.34521515  0.38167599  0.19506387    -0.81000
O82         O  0.35525159  0.35807603  0.10745598    -0.79600
Zn83       Zn  0.30274279  0.38661352  0.08444537     1.55700
O84         O  0.30026755  0.38929995  0.19945521    -0.81000
Cd85       Cd  0.36108740  0.39851269  0.14061640     1.59700
Cd86       Cd  0.36084227  0.46499237  0.10000151     1.59600
O87         O  0.41246446  0.43645568  0.13569736    -0.81000
O88         O  0.33351011  0.41769022  0.11976355    -1.91500
Cd89       Cd  0.30307963  0.41875822  0.15681008     1.59900
O90         O  0.41227158  0.47838984  0.10291698    -0.80900
O91         O  0.25449219  0.39957635  0.13705522    -0.79600
C92         C  0.31778915  0.44215082  0.02929453     0.82900
C93         C  0.33947012  0.34708244  0.07714829     0.82600
O94         O  0.25499456  0.35881415  0.10380372    -0.78600
C95         C  0.31925831  0.37870297  0.21244664     0.83400
O96         O  0.30013408  0.41224464  0.04226295    -0.78600
C97         C  0.42807594  0.46522780  0.11903926     0.83500
C98         C  0.34118367  0.49555732  0.16515571     0.83900
O99         O  0.35603431  0.49973920  0.13430112    -0.81100
C100        C  0.36065608  0.05472149  0.24273973     0.80100
N101        N  0.35613312  0.02760263  0.22248890    -0.78200
C102        C  0.34681905  0.02508007  0.18680561     0.82600
N103        N  0.34146005  0.04931199  0.17174165    -0.78100
C104        C  0.34496607  0.07604014  0.19198771     0.82700
N105        N  0.35498777  0.07891978  0.22735413    -0.79800
C106        C  0.17891179  0.15571750  0.18659542     0.80100
N107        N  0.17191927  0.14628656  0.22226311    -0.78200
C108        C  0.19430509  0.14151125  0.24257290     0.82600
N109        N  0.22409469  0.14701289  0.22723702    -0.78100
C110        C  0.23144760  0.15710076  0.19191309     0.82700
N111        N  0.20845669  0.16088394  0.17156737    -0.79800
O112        O  0.03754008  0.18190107  0.06399904    -0.78600
C113        C  0.13201573  0.26319836  0.12003477     0.82500
O114        O  0.12298811  0.15859396  0.04645141    -0.79700
O115        O  0.14594875  0.18153661  0.17769765    -0.81200
O116        O  0.03670264  0.15636577  0.19480226    -0.81000
O117        O  0.00320260  0.14673646  0.10723041    -0.79600
Zn118      Zn  0.08421559  0.19911984  0.08398802     1.55700
O119        O  0.08946520  0.20117144  0.19952306    -0.81000
Cd120      Cd  0.03772929  0.14086064  0.14031664     1.59700
Cd121      Cd  0.10450112  0.14119532  0.09994921     1.59600
O122        O  0.02407706  0.08944665  0.13539411    -0.81000
O123        O  0.08458043  0.16854202  0.11954813    -1.91500
Cd124      Cd  0.11610464  0.19910512  0.15656765     1.59900
O125        O  0.06633082  0.08968185  0.10293984    -0.80900
O126        O  0.14489420  0.24787325  0.13703826    -0.79600
C127        C  0.12515272  0.18432138  0.02925275     0.82900
C128        C  0.00791557  0.16210377  0.07664868     0.82600
O129        O  0.10369128  0.24689610  0.10326832    -0.78600
C130        C  0.05980856  0.18208314  0.21241716     0.83400
O131        O  0.11287184  0.20193374  0.04210931    -0.78600
C132        C  0.03725506  0.07383409  0.11891701     0.83500
C133        C  0.15509649  0.16136146  0.16485432     0.83900
O134        O  0.14402938  0.14607258  0.13428415    -0.81100
C135        C  0.47857098  0.15601105  0.05438729     0.80100
N136        N  0.45354512  0.16068738  0.06875401    -0.78200
C137        C  0.42573427  0.15375638  0.04839644     0.82600
N138        N  0.42275660  0.14148694  0.01411833    -0.78100
C139        C  0.44789437  0.13725274  0.49926321     0.82700
N140        N  0.47595840  0.14467808  0.01940723    -0.79800
C141        C  0.48350120  0.46663086  0.36785679     0.80100
N142        N  0.46611337  0.48394426  0.36781134    -0.78200
C143        C  0.48319291  0.01869897  0.36769499     0.82600
N144        N  0.01794492  0.03618602  0.36774642    -0.78100
C145        C  0.03560072  0.01913438  0.36777241     0.82700
N146        N  0.01824042  0.48434335  0.36788198    -0.79800
O147        O  0.24610263  0.14356310  0.39057843    -0.78600
C148        C  0.16127697  0.15585520  0.41459866     0.82500
O149        O  0.15463795  0.03588671  0.44478583    -0.79700
O150        O  0.08940643  0.06739504  0.35281187    -0.81200
O151        O  0.20391456  0.11552380  0.29240453    -0.81000
O152        O  0.24738070  0.10359737  0.35656395    -0.79600
Zn153      Zn  0.19756497  0.11597560  0.40775430     1.55700
O154        O  0.15900404  0.12330934  0.29643323    -0.81000
Cd155      Cd  0.19945359  0.08507443  0.33511505     1.59700
Cd156      Cd  0.13980566  0.03813020  0.39044399     1.59600
O157        O  0.18137180  0.03756561  0.31345185    -0.81000
O158        O  0.16796824  0.08568764  0.37137104    -1.91500
Cd159      Cd  0.14110353  0.10546263  0.35014181     1.59900
O160        O  0.14564398  0.00384592  0.35675078    -0.80900
O161        O  0.14609783  0.14535319  0.38390047    -0.79600
C162        C  0.17977888  0.05948237  0.46255803     0.82900
C163        C  0.26253574  0.13147910  0.37425542     0.82600
O164        O  0.18087511  0.14587014  0.42722833    -0.78600
C165        C  0.18520828  0.12647866  0.27936578     0.83400
O166        O  0.19781963  0.08938148  0.44975445    -0.78600
C167        C  0.16106253  0.00815281  0.32627040     0.83500
C168        C  0.07330582  0.03817828  0.36856888     0.83900
O169        O  0.08864514  0.02477360  0.38513502    -0.81100
C170        C  0.15592153  0.17968300  0.43677885     0.80100
N171        N  0.16116876  0.20945418  0.42217929    -0.78200
C172        C  0.15698424  0.23209785  0.44274381     0.82600
N173        N  0.14629203  0.22413149  0.47784438    -0.78100
C174        C  0.14068277  0.19408970  0.49272820     0.82700
N175        N  0.14591927  0.17210190  0.47223533    -0.79800
C176        C  0.05413744  0.19084387  0.24937006     0.80100
N177        N  0.02599702  0.16973751  0.26925185    -0.78200
C178        C  0.02338022  0.17776430  0.30452315     0.82600
N179        N  0.04843715  0.20714916  0.31944969    -0.78100
C180        C  0.07634377  0.22841212  0.29942917     0.82700
N181        N  0.07932437  0.21995222  0.26479389    -0.79800
O182        O  0.35828293  0.10383543  0.39045816    -0.78600
C183        C  0.34672390  0.00680769  0.41458003     0.82500
O184        O  0.46599158  0.12069859  0.44489688    -0.79700
O185        O  0.43515788  0.02424337  0.35239608    -0.81200
O186        O  0.38636150  0.09030392  0.29268601    -0.81000
O187        O  0.39855372  0.14554905  0.35703592    -0.79600
Zn188      Zn  0.38601807  0.08311233  0.40779564     1.55700
O189        O  0.37898895  0.03768351  0.29644421    -0.81000
Cd190      Cd  0.41693995  0.11615162  0.33532643     1.59700
Cd191      Cd  0.46375530  0.10347374  0.39067154     1.59600
O192        O  0.46438880  0.14545228  0.31350001    -0.81000
O193        O  0.41635415  0.08398763  0.37147540    -1.91500
Cd194      Cd  0.39691365  0.03747668  0.35001162     1.59900
O195        O  0.49796473  0.14353217  0.35692269    -0.80900
O196        O  0.35730501  0.00226091  0.38386739    -0.79600
C197        C  0.44238297  0.12219299  0.46261658     0.82900
C198        C  0.37048886  0.13255726  0.37439924     0.82600
O199        O  0.35642592  0.03637664  0.42719677    -0.78600
C200        C  0.37561480  0.06068845  0.27953057     0.83400
O201        O  0.41250520  0.11015362  0.44981960    -0.78600
C202        C  0.49372699  0.15453989  0.32635333     0.83500
C203        C  0.46415951  0.03729593  0.36848620     0.83900
O204        O  0.47728583  0.06584783  0.38546507    -0.81100
C205        C  0.02382804  0.34686561  0.43658776     0.80100
N206        N  0.02621006  0.35650705  0.47213836    -0.78200
C207        C  0.05330381  0.36139619  0.99264505     0.82600
N208        N  0.07765214  0.35576164  0.47766231    -0.78100
C209        C  0.07493049  0.34538053  0.44244297     0.82700
N210        N  0.04822077  0.34155338  0.42190494    -0.79800
O211        O  0.13356509  0.26574827  0.31708116    -0.78600
C212        C  0.24032940  0.34343128  0.31466990     0.82500
O213        O  0.15976832  0.28674544  0.44360966    -0.79700
O214        O  0.23644718  0.40373666  0.39107928    -0.81200
O215        O  0.13272553  0.36821826  0.31466878    -0.81000
O216        O  0.09465060  0.28101516  0.32834177    -0.79600
Zn217      Zn  0.17246323  0.29711013  0.35091413     1.55700
O218        O  0.18628387  0.40699359  0.32901744    -0.81000
Cd219      Cd  0.12453837  0.32882974  0.34996912     1.59700
Cd220      Cd  0.16702618  0.33441738  0.42513532     1.59600
O221        O  0.09736908  0.33371840  0.39097099    -0.81000
O222        O  0.16712940  0.33366823  0.36999942    -1.91500
Cd223      Cd  0.20431877  0.37681023  0.35006674     1.59900
O224        O  0.12644796  0.34190287  0.44284919    -0.80900
O225        O  0.23530692  0.36874911  0.31464663    -0.79600
C226        C  0.16210429  0.26375695  0.42548902     0.82900
C227        C  0.10306092  0.26022025  0.31539122     0.82600
O228        O  0.21924883  0.31488380  0.32906157    -0.78600
C229        C  0.15761835  0.39887074  0.31472276     0.83400
O230        O  0.16821063  0.26660529  0.39144885    -0.78600
C231        C  0.10113955  0.33992125  0.42496906     0.83500
C232        C  0.23865107  0.40007629  0.42514858     0.83900
O233        O  0.21505175  0.37494807  0.44307711    -0.81100
O234        O  0.39800443  0.25624287  0.39067352    -0.78600
C235        C  0.49456808  0.34148560  0.41453813     0.82500
O236        O  0.38070692  0.34699925  0.44511771    -0.79700
O237        O  0.47764816  0.41284063  0.35264702    -0.81200
O238        O  0.41082266  0.29819612  0.29254343    -0.81000
O239        O  0.35629305  0.25450923  0.35720372    -0.79600
Zn240      Zn  0.41835278  0.30474611  0.40798754     1.55700
O241        O  0.46362676  0.34317718  0.29639008    -0.81000
Cd242      Cd  0.38515336  0.30248258  0.33561422     1.59700
Cd243      Cd  0.39804535  0.36228996  0.39080935     1.59600
O244        O  0.35521870  0.31998373  0.31433311    -0.81000
O245        O  0.41742147  0.33423618  0.37161136    -1.91500
Cd246      Cd  0.46398654  0.36118617  0.35007862     1.59900
O247        O  0.35792001  0.35645977  0.35700771    -0.80900
O248        O  0.49911741  0.35644421  0.38368847    -0.79600
C249        C  0.37906033  0.32173606  0.46276471     0.82900
C250        C  0.36938502  0.23955869  0.37455165     0.82600
O251        O  0.46501630  0.32194742  0.42740376    -0.78600
C252        C  0.44046453  0.31694461  0.27938760     0.83400
O253        O  0.39111801  0.30393406  0.44993984    -0.78600
C254        C  0.34639068  0.34054054  0.32684651     0.83500
C255        C  0.46472786  0.42891187  0.36870231     0.83900
O256        O  0.43608858  0.41353512  0.38556137    -0.81100
C257        C  0.32303427  0.34659358  0.30480795     0.80100
N258        N  0.33129759  0.35732502  0.26955937    -0.78200
C259        C  0.31010555  0.36382861  0.24925990     0.82600
N260        N  0.28066132  0.35930283  0.26426947    -0.78100
C261        C  0.27185082  0.34763779  0.29882741     0.82700
N262        N  0.29326125  0.34160632  0.31932217    -0.79800
C263        C  0.32295775  0.47749371  0.43669286     0.80100
N264        N  0.29319837  0.45306857  0.42209001    -0.78200
C265        C  0.27035900  0.42625323  0.44261487     0.82600
N266        N  0.27811956  0.42343117  0.47776671    -0.78100
C267        C  0.30818996  0.44782122  0.99267254     0.82700
N268        N  0.33035397  0.47504517  0.47218030    -0.79800
C269        C  0.13682649  0.44783048  0.24921613     0.80100
N270        N  0.14109927  0.42281983  0.26441895    -0.78200
C271        C  0.15292076  0.42587920  0.29889627     0.82600
N272        N  0.15945426  0.45366678  0.31907934    -0.78100
C273        C  0.15472023  0.47855164  0.30438271     0.82700
N274        N  0.14378755  0.47586647  0.26921518    -0.79800
C275        C  0.35171472  0.15083348  0.37550856     0.80100
N276        N  0.31712902  0.13322349  0.37534250    -0.78200
C277        C  0.29960249  0.15024758  0.37542792     0.82600
N278        N  0.31664574  0.18484304  0.37549358    -0.78100
C279        C  0.35121348  0.20245332  0.37564593     0.82700
N280        N  0.36877225  0.18546086  0.37555359    -0.79800
C281        C  0.46575977  0.48395742  0.61850065     0.80100
N282        N  0.48345161  0.01873044  0.61852872    -0.78200
C283        C  0.01819641  0.03610056  0.61844945     0.82600
N284        N  0.03523851  0.01843230  0.61840332    -0.78100
C285        C  0.01778600  0.48365271  0.61835267     0.82700
N286        N  0.48305580  0.46654713  0.61843730    -0.79000
C287        C  0.14973279  0.35190602  0.61998873     0.80100
N288        N  0.13268411  0.31729117  0.61987824    -0.78200
C289        C  0.15021477  0.30029461  0.61978020     0.82600
N290        N  0.18478102  0.31787954  0.61984488    -0.78100
C291        C  0.20184039  0.35247941  0.61994778     0.82700
N292        N  0.18432665  0.36952558  0.62003846    -0.79800
C293        C  0.34533095  0.32375661  0.55473423     0.80100
N294        N  0.34021455  0.29374164  0.56881692    -0.78200
C295        C  0.34672076  0.27271337  0.54816407     0.82600
N296        N  0.35912361  0.28223698  0.51392805    -0.78100
C297        C  0.36378456  0.31191919  0.99934983     0.82700
N298        N  0.35672483  0.33266545  0.51977578    -0.79800
O299        O  0.14374162  0.46424572  0.56403927    -0.78600
C300        C  0.13081752  0.37003344  0.62030824     0.82500
O301        O  0.03544986  0.37891208  0.54635854    -0.79700
O302        O  0.03497057  0.35602951  0.67782718    -0.81200
O303        O  0.11939841  0.46512095  0.69483948    -0.81000
O304        O  0.14298852  0.49853266  0.60729404    -0.79600
Zn305      Zn  0.11446803  0.41757283  0.58418079     1.55700
O306        O  0.11135024  0.41234731  0.69954500    -0.81000
Cd307      Cd  0.10266679  0.46397763  0.64044495     1.59700
Cd308      Cd  0.03634649  0.39738530  0.59980579     1.59600
O309        O  0.06503644  0.47765406  0.63557093    -0.81000
O310        O  0.08349213  0.41717914  0.61961927    -1.91500
Cd311      Cd  0.08246244  0.38565310  0.65664711     1.59900
O312        O  0.02321183  0.43563889  0.60259376    -0.80900
O313        O  0.10243840  0.35692231  0.63707566    -0.79600
C314        C  0.05898902  0.37666308  0.52928015     0.82900
C315        C  0.15355881  0.49386066  0.57667275     0.82600
O316        O  0.14294900  0.39849803  0.60373534    -0.78600
C317        C  0.12206622  0.44204389  0.71240426     0.83400
O318        O  0.08881712  0.38876736  0.54229289    -0.78600
C319        C  0.03638653  0.46460484  0.61880973     0.83500
C320        C  0.00568435  0.34705028  0.66498161     0.83900
O321        O  0.00156105  0.35804696  0.63431316    -0.81100
C322        C  0.18913035  0.05399061  0.99930399     0.80100
N323        N  0.16831260  0.02586706  0.51940303    -0.78200
C324        C  0.17684268  0.02326381  0.55446151     0.82600
N325        N  0.20648556  0.04831858  0.56895006    -0.78100
C326        C  0.22752565  0.07618989  0.54867955     0.82700
N327        N  0.21848594  0.07917627  0.51428247    -0.79800
C328        C  0.47612415  0.32334766  0.68670912     0.80100
N329        N  0.45178137  0.29376639  0.67171271    -0.78200
C330        C  0.42492351  0.27069722  0.69195376     0.82600
N331        N  0.42202162  0.27798982  0.72725532    -0.78100
C332        C  0.44632648  0.30787880  0.74257838     0.82700
N333        N  0.47358890  0.33032668  0.72233000    -0.79800
O334        O  0.31391688  0.21970011  0.57789583    -0.78600
C335        C  0.25946721  0.10308958  0.56430862     0.82500
O336        O  0.28607166  0.16018144  0.69240221    -0.79700
O337        O  0.33326591  0.09805761  0.64014961    -0.81200
O338        O  0.40640030  0.18706186  0.57799630    -0.81000
O339        O  0.36781004  0.23600296  0.56356043    -0.79600
Zn340      Zn  0.29617832  0.17271621  0.59964293     1.55700
O341        O  0.36795362  0.13329644  0.56381987    -0.81000
Cd342      Cd  0.37598847  0.20495803  0.59889751     1.59700
Cd343      Cd  0.33356197  0.16758641  0.67380461     1.59600
O344        O  0.40271599  0.23708318  0.64010395    -0.81000
O345        O  0.33287154  0.16758315  0.61867348    -1.91500
Cd346      Cd  0.32828823  0.12497473  0.59882106     1.59900
O347        O  0.37375958  0.21547369  0.69194518    -0.80900
O348        O  0.28041545  0.09484004  0.57719284    -0.79600
C349        C  0.26294113  0.16228169  0.67436027     0.82900
C350        C  0.34247038  0.24097235  0.56364724     0.82600
O351        O  0.26490441  0.13361010  0.56588216    -0.78600
C352        C  0.39852431  0.15834129  0.56390784     0.83400
O353        O  0.26559905  0.16825719  0.64028875    -0.78600
C354        C  0.39890882  0.23914457  0.67417573     0.83500
C355        C  0.33940530  0.10202065  0.67417096     0.83900
O356        O  0.34122813  0.12734625  0.69184571    -0.81100
O357        O  0.31948000  0.35671692  0.56478509    -0.78600
C358        C  0.23892413  0.37123496  0.62024339     0.82500
O359        O  0.34343773  0.46583470  0.54647677    -0.79700
O360        O  0.32127762  0.46620045  0.67826631    -0.81200
O361        O  0.34521522  0.38167593  0.69506387    -0.81000
O362        O  0.35525131  0.35807604  0.60745588    -0.79600
Zn363      Zn  0.30274285  0.38661359  0.58444538     1.55700
O364        O  0.30026789  0.38929994  0.69945537    -0.81000
Cd365      Cd  0.36108739  0.39851274  0.64061647     1.59700
Cd366      Cd  0.36084223  0.46499233  0.60000151     1.59600
O367        O  0.41246458  0.43645593  0.63569744    -0.81000
O368        O  0.33351015  0.41769026  0.61976361    -1.91500
Cd369      Cd  0.30307969  0.41875829  0.65681022     1.59900
O370        O  0.41227165  0.47838981  0.60291716    -0.80900
O371        O  0.25449202  0.39957614  0.63705525    -0.79600
C372        C  0.31778883  0.44215071  0.52929388     0.82900
C373        C  0.33947099  0.34708226  0.57714822     0.82600
O374        O  0.25499448  0.35881428  0.60380382    -0.78600
C375        C  0.31925800  0.37870293  0.71244659     0.83400
O376        O  0.30013403  0.41224448  0.54226319    -0.78600
C377        C  0.42807564  0.46522740  0.61903916     0.83500
C378        C  0.34118345  0.49555718  0.66515618     0.83900
O379        O  0.35603438  0.49973922  0.63430096    -0.81100
C380        C  0.36065605  0.05472092  0.74273948     0.80100
N381        N  0.35613316  0.02760287  0.72248940    -0.78200
C382        C  0.34681892  0.02507996  0.68680526     0.82600
N383        N  0.34146002  0.04931192  0.67174170    -0.78100
C384        C  0.34496600  0.07604062  0.69198749     0.82700
N385        N  0.35498770  0.07891991  0.72735379    -0.79800
C386        C  0.17891124  0.15571722  0.68659563     0.80100
N387        N  0.17191957  0.14628660  0.72226297    -0.78200
C388        C  0.19430505  0.14151110  0.74257355     0.82600
N389        N  0.22409457  0.14701280  0.72723731    -0.78100
C390        C  0.23144759  0.15710093  0.69191233     0.82700
N391        N  0.20845751  0.16088405  0.67156752    -0.79800
O392        O  0.03754029  0.18190122  0.56399908    -0.78600
C393        C  0.13201546  0.26319855  0.62003450     0.82500
O394        O  0.12298818  0.15859418  0.54645120    -0.79700
O395        O  0.14594885  0.18153616  0.67769733    -0.81200
O396        O  0.03670219  0.15636553  0.69480232    -0.81000
O397        O  0.00320262  0.14673622  0.60723101    -0.79600
Zn398      Zn  0.08421555  0.19911993  0.58398804     1.55700
O399        O  0.08946427  0.20117088  0.69952355    -0.81000
Cd400      Cd  0.03772928  0.14086071  0.64031647     1.59700
Cd401      Cd  0.10450121  0.14119544  0.59994913     1.59600
O402        O  0.02407715  0.08944692  0.63539385    -0.81000
O403        O  0.08458054  0.16854211  0.61954806    -1.91500
Cd404      Cd  0.11610467  0.19910521  0.65656766     1.59900
O405        O  0.06633102  0.08968201  0.60293973    -0.80900
O406        O  0.14489423  0.24787324  0.63703838    -0.79600
C407        C  0.12515254  0.18432127  0.52925319     0.82900
C408        C  0.00791515  0.16210401  0.57664785     0.82600
O409        O  0.10369132  0.24689613  0.60326844    -0.78600
C410        C  0.05981006  0.18208403  0.71241601     0.83400
O411        O  0.11287188  0.20193389  0.54210911    -0.78600
C412        C  0.03725475  0.07383376  0.61891727     0.83500
C413        C  0.15509628  0.16136222  0.66485472     0.83900
O414        O  0.14402962  0.14607260  0.63428411    -0.81100
C415        C  0.47857097  0.15601118  0.55438764     0.80100
N416        N  0.45354556  0.16068744  0.56875410    -0.78200
C417        C  0.42573417  0.15375624  0.54839594     0.82600
N418        N  0.42275668  0.14148698  0.51411848    -0.78100
C419        C  0.44789441  0.13725282  0.99926340     0.82700
N420        N  0.47595837  0.14467803  0.51940718    -0.79800
C421        C  0.48350163  0.46663142  0.86785680     0.80100
N422        N  0.46611337  0.48394408  0.86781143    -0.78200
C423        C  0.48319314  0.01869847  0.86769507     0.82600
N424        N  0.01794467  0.03618595  0.86774630    -0.78100
C425        C  0.03560055  0.01913402  0.86777238     0.82700
N426        N  0.01823999  0.48434276  0.86788198    -0.79800
O427        O  0.24610227  0.14356300  0.89057857    -0.78600
C428        C  0.16127774  0.15585529  0.91459940     0.82500
O429        O  0.15463790  0.03588649  0.94478587    -0.79700
O430        O  0.08940644  0.06739543  0.85281162    -0.81200
O431        O  0.20391493  0.11552350  0.79240500    -0.81000
O432        O  0.24738045  0.10359739  0.85656409    -0.79600
Zn433      Zn  0.19756491  0.11597555  0.90775439     1.55700
O434        O  0.15900410  0.12330926  0.79643350    -0.81000
Cd435      Cd  0.19945350  0.08507442  0.83511509     1.59700
Cd436      Cd  0.13980563  0.03813015  0.89044406     1.59600
O437        O  0.18137144  0.03756523  0.81345189    -0.81000
O438        O  0.16796817  0.08568760  0.87137112    -1.91500
Cd439      Cd  0.14110350  0.10546268  0.85014184     1.59900
O440        O  0.14564372  0.00384580  0.85675104    -0.80900
O441        O  0.14609776  0.14535323  0.88390017    -0.79600
C442        C  0.17977926  0.05948318  0.96255787     0.82900
C443        C  0.26253639  0.13147919  0.87425527     0.82600
O444        O  0.18087467  0.14587013  0.92722816    -0.78600
C445        C  0.18520775  0.12647905  0.77936475     0.83400
O446        O  0.19781937  0.08938084  0.94975468    -0.78600
C447        C  0.16106303  0.00815335  0.82627022     0.83500
C448        C  0.07330631  0.03817808  0.86856938     0.83900
O449        O  0.08864473  0.02477362  0.88513471    -0.81100
C450        C  0.15592145  0.17968303  0.93677929     0.80100
N451        N  0.16116886  0.20945439  0.92217942    -0.78200
C452        C  0.15698423  0.23209757  0.94274393     0.82600
N453        N  0.14629200  0.22413123  0.97784456    -0.78100
C454        C  0.14068279  0.19409059  0.99272888     0.82700
N455        N  0.14591958  0.17210135  0.97223449    -0.79800
C456        C  0.05413776  0.19084452  0.74937112     0.80100
N457        N  0.02599666  0.16973722  0.76925189    -0.78200
C458        C  0.02338013  0.17776418  0.80452281     0.82600
N459        N  0.04843708  0.20714933  0.81944991    -0.78100
C460        C  0.07634396  0.22841211  0.79942894     0.82700
N461        N  0.07932377  0.21995167  0.76479337    -0.79800
O462        O  0.35828270  0.10383516  0.89045832    -0.78600
C463        C  0.34672423  0.00680868  0.91457991     0.82500
O464        O  0.46599150  0.12069847  0.94489677    -0.79700
O465        O  0.43515764  0.02424307  0.85239603    -0.81200
O466        O  0.38636145  0.09030415  0.79268596    -0.81000
O467        O  0.39855345  0.14554893  0.85703614    -0.79600
Zn468      Zn  0.38601801  0.08311237  0.90779568     1.55700
O469        O  0.37898885  0.03768373  0.79644387    -0.81000
Cd470      Cd  0.41693993  0.11615167  0.83532647     1.59700
Cd471      Cd  0.46375519  0.10347369  0.89067159     1.59600
O472        O  0.46438821  0.14545221  0.81349978    -0.81000
O473        O  0.41635414  0.08398760  0.87147547    -1.91500
Cd474      Cd  0.39691359  0.03747667  0.85001171     1.59900
O475        O  0.49796442  0.14353218  0.85692236    -0.80900
O476        O  0.35730492  0.00226052  0.88386717    -0.79600
C477        C  0.44238295  0.12219314  0.96261694     0.82900
C478        C  0.37048883  0.13255747  0.87439891     0.82600
O479        O  0.35642577  0.03637637  0.92719692    -0.78600
C480        C  0.37561499  0.06068786  0.77953123     0.83400
O481        O  0.41250521  0.11015368  0.94981938    -0.78600
C482        C  0.49372818  0.15454016  0.82635403     0.83500
C483        C  0.46415963  0.03729686  0.86848665     0.83900
O484        O  0.47728560  0.06584730  0.88546490    -0.81100
C485        C  0.02382826  0.34686580  0.93658760     0.80100
N486        N  0.02620963  0.35650709  0.97213814    -0.78200
C487        C  0.05330317  0.36139620  0.49264481     0.82600
N488        N  0.07765174  0.35576169  0.97766236    -0.78100
C489        C  0.07493105  0.34538060  0.94244283     0.82700
N490        N  0.04822070  0.34155340  0.92190506    -0.79800
O491        O  0.13356502  0.26574812  0.81708115    -0.78600
C492        C  0.24032887  0.34343081  0.81467032     0.82500
O493        O  0.15976822  0.28674533  0.94360973    -0.79700
O494        O  0.23644718  0.40373656  0.89107981    -0.81200
O495        O  0.13272567  0.36821851  0.81466867    -0.81000
O496        O  0.09465079  0.28101501  0.82834162    -0.79600
Zn497      Zn  0.17246328  0.29711006  0.85091416     1.55700
O498        O  0.18628416  0.40699388  0.82901757    -0.81000
Cd499      Cd  0.12453848  0.32882980  0.84996916     1.59700
Cd500      Cd  0.16702621  0.33441747  0.92513520     1.59600
O501        O  0.09736927  0.33371860  0.89097117    -0.81000
O502        O  0.16712942  0.33366825  0.86999943    -1.91500
Cd503      Cd  0.20431878  0.37681029  0.85006673     1.59900
O504        O  0.12644819  0.34190306  0.94284940    -0.80900
O505        O  0.23530698  0.36874915  0.81464659    -0.79600
C506        C  0.16210462  0.26375745  0.92548901     0.82900
C507        C  0.10306084  0.26022079  0.81539144     0.82600
O508        O  0.21924906  0.31488396  0.82906148    -0.78600
C509        C  0.15761803  0.39887000  0.81472294     0.83400
O510        O  0.16821056  0.26660514  0.89144869    -0.78600
C511        C  0.10113898  0.33992103  0.92496867     0.83500
C512        C  0.23865137  0.40007664  0.92514775     0.83900
O513        O  0.21505141  0.37494782  0.94307741    -0.81100
O514        O  0.39800389  0.25624272  0.89067325    -0.78600
C515        C  0.49456760  0.34148501  0.91453864     0.82500
O516        O  0.38070686  0.34699906  0.94511817    -0.79700
O517        O  0.47764826  0.41284103  0.85264715    -0.81200
O518        O  0.41082229  0.29819577  0.79254346    -0.81000
O519        O  0.35629289  0.25450933  0.85720351    -0.79600
Zn520      Zn  0.41835278  0.30474606  0.90798754     1.55700
O521        O  0.46362654  0.34317673  0.79638986    -0.81000
Cd522      Cd  0.38515334  0.30248252  0.83561425     1.59700
Cd523      Cd  0.39804539  0.36228985  0.89080937     1.59600
O524        O  0.35521888  0.31998400  0.81433360    -0.81000
O525        O  0.41742142  0.33423611  0.87161139    -1.91500
Cd526      Cd  0.46398665  0.36118620  0.85007868     1.59900
O527        O  0.35792051  0.35646014  0.85700862    -0.80900
O528        O  0.49911765  0.35644452  0.88368815    -0.79600
C529        C  0.37906075  0.32173673  0.96276346     0.82900
C530        C  0.36938571  0.23955834  0.87455240     0.82600
O531        O  0.46501667  0.32194773  0.92740353    -0.78600
C532        C  0.44046525  0.31694566  0.77938811     0.83400
O533        O  0.39111786  0.30393401  0.94994030    -0.78600
C534        C  0.34638966  0.34053985  0.82684485     0.83500
C535        C  0.46472751  0.42891100  0.86870245     0.83900
O536        O  0.43608879  0.41353539  0.88556127    -0.81100
C537        C  0.32303531  0.34659376  0.80480800     0.80100
N538        N  0.33129791  0.35732481  0.76956003    -0.78200
C539        C  0.31010456  0.36382855  0.74925966     0.82600
N540        N  0.28066173  0.35930274  0.76426952    -0.78100
C541        C  0.27185123  0.34763782  0.79882719     0.82700
N542        N  0.29326062  0.34160637  0.81932233    -0.79800
C543        C  0.32295810  0.47749434  0.93669297     0.80100
N544        N  0.29319783  0.45306776  0.92209038    -0.78200
C545        C  0.27035944  0.42625392  0.94261431     0.82600
N546        N  0.27811921  0.42343069  0.97776694    -0.78100
C547        C  0.30818983  0.44782075  0.49267331     0.82700
N548        N  0.33035388  0.47504485  0.97218064    -0.79800
C549        C  0.13682627  0.44783104  0.74921596     0.80100
N550        N  0.14109934  0.42281952  0.76441930    -0.78200
C551        C  0.15292058  0.42587972  0.79889588     0.82600
N552        N  0.15945433  0.45366684  0.81907934    -0.78100
C553        C  0.15472054  0.47855144  0.80438327     0.82700
N554        N  0.14378729  0.47586608  0.76921446    -0.79800
C555        C  0.35171519  0.15083354  0.87550866     0.80100
N556        N  0.31712887  0.13322338  0.87534261    -0.78200
C557        C  0.29960199  0.15024777  0.87542795     0.82600
N558        N  0.31664519  0.18484236  0.87549371    -0.78100
C559        C  0.35121370  0.20245376  0.87564575     0.82700
N560        N  0.36877178  0.18546054  0.87555367    -0.79800
C561        C  0.46576013  0.98395751  0.11850048     0.80100
N562        N  0.48345125  0.51873037  0.11852869    -0.78200
C563        C  0.01819624  0.53610054  0.11844966     0.82600
N564        N  0.03523844  0.51843215  0.11840340    -0.78100
C565        C  0.01778650  0.98365261  0.11835256     0.82700
N566        N  0.48305516  0.96654696  0.11843730    -0.79000
C567        C  0.14973304  0.85190584  0.11998864     0.80100
N568        N  0.13268392  0.81729106  0.11987828    -0.78200
C569        C  0.15021497  0.80029478  0.11978022     0.82600
N570        N  0.18478080  0.81787928  0.11984493    -0.78100
C571        C  0.20184054  0.85247964  0.11994779     0.82700
N572        N  0.18432638  0.86952544  0.12003842    -0.79800
C573        C  0.34533082  0.82375588  0.05473421     0.80100
N574        N  0.34021448  0.79374194  0.06881697    -0.78200
C575        C  0.34672091  0.77271327  0.04816361     0.82600
N576        N  0.35912356  0.78223686  0.01392821    -0.78100
C577        C  0.36378496  0.81191932  0.49934863     0.82700
N578        N  0.35672499  0.83266557  0.01977520    -0.79800
O579        O  0.14374174  0.96424622  0.06403976    -0.78600
C580        C  0.13081742  0.87003388  0.12030831     0.82500
O581        O  0.03544982  0.87891206  0.04635869    -0.79700
O582        O  0.03497077  0.85602960  0.17782733    -0.81200
O583        O  0.11939841  0.96512107  0.19483949    -0.81000
O584        O  0.14298839  0.99853279  0.10729469    -0.79600
Zn585      Zn  0.11446804  0.91757283  0.08418076     1.55700
O586        O  0.11135033  0.91234750  0.19954517    -0.81000
Cd587      Cd  0.10266679  0.96397766  0.14044490     1.59700
Cd588      Cd  0.03634646  0.89738527  0.09980572     1.59600
O589        O  0.06503653  0.97765384  0.13557079    -0.81000
O590        O  0.08349212  0.91717915  0.11961918    -1.91500
Cd591      Cd  0.08246246  0.88565320  0.15664700     1.59900
O592        O  0.02321174  0.93563857  0.10259366    -0.80900
O593        O  0.10243848  0.85692224  0.13707559    -0.79600
C594        C  0.05898873  0.87666320  0.02927975     0.82900
C595        C  0.15355895  0.99386006  0.07667152     0.82600
O596        O  0.14294903  0.89849789  0.10373524    -0.78600
C597        C  0.12206606  0.94204349  0.21240392     0.83400
O598        O  0.08881713  0.88876731  0.04229289    -0.78600
C599        C  0.03638647  0.96460558  0.11881008     0.83500
C600        C  0.00568398  0.84705029  0.16498090     0.83900
O601        O  0.00156113  0.85804688  0.13431337    -0.81100
C602        C  0.18913047  0.55399051  0.49930426     0.80100
N603        N  0.16831266  0.52586707  0.01940330    -0.78200
C604        C  0.17684238  0.52326354  0.05446196     0.82600
N605        N  0.20648565  0.54831873  0.06895036    -0.78100
C606        C  0.22752518  0.57618957  0.04867902     0.82700
N607        N  0.21848603  0.57917632  0.01428271    -0.79800
C608        C  0.47612436  0.82334773  0.18670908     0.80100
N609        N  0.45178164  0.79376668  0.17171260    -0.78200
C610        C  0.42492313  0.77069677  0.19195361     0.82600
N611        N  0.42202155  0.77798978  0.22725551    -0.78100
C612        C  0.44632702  0.80787929  0.24257815     0.82700
N613        N  0.47358853  0.83032632  0.22233028    -0.79800
O614        O  0.31391686  0.71970016  0.07789585    -0.78600
C615        C  0.25946766  0.60309029  0.06430905     0.82500
O616        O  0.28607151  0.66018148  0.19240210    -0.79700
O617        O  0.33326596  0.59805773  0.14014994    -0.81200
O618        O  0.40640052  0.68706221  0.07799634    -0.81000
O619        O  0.36781000  0.73600297  0.06356028    -0.79600
Zn620      Zn  0.29617836  0.67271628  0.09964301     1.55700
O621        O  0.36795380  0.63329654  0.06381980    -0.81000
Cd622      Cd  0.37598848  0.70495804  0.09889744     1.59700
Cd623      Cd  0.33356204  0.66758650  0.17380460     1.59600
O624        O  0.40271582  0.73708298  0.14010401    -0.81000
O625        O  0.33287155  0.66758316  0.11867346    -1.91500
Cd626      Cd  0.32828822  0.62497476  0.09882104     1.59900
O627        O  0.37375921  0.71547333  0.19194526    -0.80900
O628        O  0.28041536  0.59483980  0.07719285    -0.79600
C629        C  0.26294145  0.66228167  0.17436075     0.82900
C630        C  0.34247038  0.74097232  0.06364755     0.82600
O631        O  0.26490427  0.63360992  0.06588222    -0.78600
C632        C  0.39852384  0.65834076  0.06390760     0.83400
O633        O  0.26559906  0.66825729  0.14028859    -0.78600
C634        C  0.39890959  0.73914548  0.17417538     0.83500
C635        C  0.33940515  0.60201996  0.17417010     0.83900
O636        O  0.34122827  0.62734675  0.19184601    -0.81100
O637        O  0.31947986  0.85671683  0.06478478    -0.78600
C638        C  0.23892405  0.87123485  0.12024336     0.82500
O639        O  0.34343768  0.96583468  0.04647654    -0.79700
O640        O  0.32127778  0.96620078  0.17826636    -0.81200
O641        O  0.34521521  0.88167584  0.19506388    -0.81000
O642        O  0.35525109  0.85807584  0.10745540    -0.79600
Zn643      Zn  0.30274282  0.88661355  0.08444534     1.55700
O644        O  0.30026792  0.88929985  0.19945539    -0.81000
Cd645      Cd  0.36108737  0.89851272  0.14061641     1.59700
Cd646      Cd  0.36084219  0.96499228  0.10000150     1.59600
O647        O  0.41246465  0.93645613  0.13569714    -0.81000
O648        O  0.33351012  0.91769021  0.11976358    -1.91500
Cd649      Cd  0.30307969  0.91875826  0.15681013     1.59900
O650        O  0.41227153  0.97838991  0.10291688    -0.80900
O651        O  0.25449203  0.89957611  0.13705520    -0.79600
C652        C  0.31778889  0.94215054  0.02929444     0.82900
C653        C  0.33947122  0.84708259  0.07714914     0.82600
O654        O  0.25499444  0.85881423  0.10380376    -0.78600
C655        C  0.31925805  0.87870323  0.21244639     0.83400
O656        O  0.30013402  0.91224451  0.04226295    -0.78600
C657        C  0.42807551  0.96522689  0.11903964     0.83500
C658        C  0.34118321  0.99555665  0.16515588     0.83900
O659        O  0.35603446  0.99973940  0.13430095    -0.81100
C660        C  0.36065612  0.55472091  0.24273957     0.80100
N661        N  0.35613315  0.52760298  0.22248933    -0.78200
C662        C  0.34681888  0.52507972  0.18680534     0.82600
N663        N  0.34146009  0.54931206  0.17174197    -0.78100
C664        C  0.34496594  0.57604069  0.19198715     0.82700
N665        N  0.35498774  0.57891999  0.22735418    -0.79800
C666        C  0.17891139  0.65571733  0.18659558     0.80100
N667        N  0.17191950  0.64628653  0.22226325    -0.78200
C668        C  0.19430539  0.64151146  0.24257272     0.82600
N669        N  0.22409456  0.64701279  0.22723732    -0.78100
C670        C  0.23144761  0.65710081  0.19191270     0.82700
N671        N  0.20845725  0.66088403  0.17156738    -0.79800
O672        O  0.03754042  0.68190129  0.06399896    -0.78600
C673        C  0.13201564  0.76319843  0.12003479     0.82500
O674        O  0.12298814  0.65859373  0.04645152    -0.79700
O675        O  0.14594883  0.68153652  0.17769759    -0.81200
O676        O  0.03670232  0.65636555  0.19480210    -0.81000
O677        O  0.00320281  0.64673660  0.10723040    -0.79600
Zn678      Zn  0.08421554  0.69911992  0.08398799     1.55700
O679        O  0.08946457  0.70117104  0.19952325    -0.81000
Cd680      Cd  0.03772924  0.64086066  0.14031662     1.59700
Cd681      Cd  0.10450117  0.64119541  0.09994922     1.59600
O682        O  0.02407701  0.58944693  0.13539416    -0.81000
O683        O  0.08458049  0.66854208  0.11954812    -1.91500
Cd684      Cd  0.11610465  0.69910515  0.15656764     1.59900
O685        O  0.06633094  0.58968198  0.10293987    -0.80900
O686        O  0.14489412  0.74787330  0.13703823    -0.79600
C687        C  0.12515259  0.68432230  0.02925268     0.82900
C688        C  0.00791484  0.66210351  0.07664876     0.82600
O689        O  0.10369112  0.74689603  0.10326832    -0.78600
C690        C  0.05980945  0.68208378  0.21241696     0.83400
O691        O  0.11287196  0.70193355  0.04210922    -0.78600
C692        C  0.03725502  0.57383372  0.11891701     0.83500
C693        C  0.15509633  0.66136184  0.16485442     0.83900
O694        O  0.14402960  0.64607256  0.13428412    -0.81100
C695        C  0.47857055  0.65601125  0.05438751     0.80100
N696        N  0.45354589  0.66068738  0.06875402    -0.78200
C697        C  0.42573393  0.65375637  0.04839595     0.82600
N698        N  0.42275693  0.64148693  0.01411842    -0.78100
C699        C  0.44789406  0.63725286  0.49926351     0.82700
N700        N  0.47595875  0.64467796  0.01940710    -0.79800
C701        C  0.48350185  0.96663099  0.36785670     0.80100
N702        N  0.46611333  0.98394439  0.36781142    -0.78200
C703        C  0.48319311  0.51869897  0.36769498     0.82600
N704        N  0.01794444  0.53618579  0.36774638    -0.78100
C705        C  0.03560068  0.51913386  0.36777259     0.82700
N706        N  0.01824035  0.98434306  0.36788204    -0.79800
O707        O  0.24610244  0.64356288  0.39057833    -0.78600
C708        C  0.16127769  0.65585511  0.41459910     0.82500
O709        O  0.15463800  0.53588663  0.44478590    -0.79700
O710        O  0.08940642  0.56739522  0.35281186    -0.81200
O711        O  0.20391490  0.61552374  0.29240459    -0.81000
O712        O  0.24738041  0.60359719  0.35656386    -0.79600
Zn713      Zn  0.19756493  0.61597555  0.40775432     1.55700
O714        O  0.15900419  0.62330946  0.29643325    -0.81000
Cd715      Cd  0.19945350  0.58507436  0.33511503     1.59700
Cd716      Cd  0.13980566  0.53813026  0.39044397     1.59600
O717        O  0.18137160  0.53756554  0.31345197    -0.81000
O718        O  0.16796818  0.58568760  0.37137106    -1.91500
Cd719      Cd  0.14110349  0.60546269  0.35014177     1.59900
O720        O  0.14564373  0.50384590  0.35675107    -0.80900
O721        O  0.14609773  0.64535323  0.38390023    -0.79600
C722        C  0.17977899  0.55948288  0.46255765     0.82900
C723        C  0.26253614  0.63147945  0.37425554     0.82600
O724        O  0.18087470  0.64587026  0.42722815    -0.78600
C725        C  0.18520743  0.62647849  0.27936583     0.83400
O726        O  0.19781947  0.58938102  0.44975454    -0.78600
C727        C  0.16106293  0.50815285  0.32626978     0.83500
C728        C  0.07330614  0.53817827  0.36856896     0.83900
O729        O  0.08864485  0.52477372  0.38513492    -0.81100
C730        C  0.15592148  0.67968310  0.43677935     0.80100
N731        N  0.16116887  0.70945444  0.42217930    -0.78200
C732        C  0.15698422  0.73209754  0.44274382     0.82600
N733        N  0.14629191  0.72413104  0.47784476    -0.78100
C734        C  0.14068300  0.69409095  0.49272804     0.82700
N735        N  0.14591943  0.67210128  0.47223478    -0.79800
C736        C  0.05413790  0.69084443  0.24937053     0.80100
N737        N  0.02599660  0.66973714  0.26925172    -0.78200
C738        C  0.02338036  0.67776444  0.30452319     0.82600
N739        N  0.04843710  0.70714922  0.31944963    -0.78100
C740        C  0.07634386  0.72841218  0.29942931     0.82700
N741        N  0.07932391  0.71995183  0.26479355    -0.79800
O742        O  0.35828283  0.60383525  0.39045817    -0.78600
C743        C  0.34672401  0.50680832  0.41458036     0.82500
O744        O  0.46599150  0.62069863  0.44489699    -0.79700
O745        O  0.43515743  0.52424297  0.35239584    -0.81200
O746        O  0.38636149  0.59030407  0.29268609    -0.81000
O747        O  0.39855370  0.64554900  0.35703591    -0.79600
Zn748      Zn  0.38601798  0.58311235  0.40779565     1.55700
O749        O  0.37898894  0.53768382  0.29644408    -0.81000
Cd750      Cd  0.41693991  0.61615165  0.33532641     1.59700
Cd751      Cd  0.46375514  0.60347365  0.39067151     1.59600
O752        O  0.46438844  0.64545226  0.31349988    -0.81000
O753        O  0.41635409  0.58398755  0.37147541    -1.91500
Cd754      Cd  0.39691357  0.53747661  0.35001162     1.59900
O755        O  0.49796449  0.64353212  0.35692252    -0.80900
O756        O  0.35730498  0.50226070  0.38386719    -0.79600
C757        C  0.44238298  0.62219292  0.46261629     0.82900
C758        C  0.37048854  0.63255753  0.37439919     0.82600
O759        O  0.35642581  0.53637642  0.42719664    -0.78600
C760        C  0.37561472  0.56068784  0.27953065     0.83400
O761        O  0.41250520  0.61015374  0.44981962    -0.78600
C762        C  0.49372768  0.65454001  0.32635356     0.83500
C763        C  0.46415998  0.53729691  0.36848686     0.83900
O764        O  0.47728548  0.56584713  0.38546475    -0.81100
C765        C  0.02382833  0.84686581  0.43658798     0.80100
N766        N  0.02620963  0.85650706  0.47213806    -0.78200
C767        C  0.05330374  0.86139620  0.99264500     0.82600
N768        N  0.07765181  0.85576179  0.47766258    -0.78100
C769        C  0.07493103  0.84538052  0.44244265     0.82700
N770        N  0.04822073  0.84155334  0.42190495    -0.79800
O771        O  0.13356508  0.76574822  0.31708113    -0.78600
C772        C  0.24032855  0.84342996  0.31467041     0.82500
O773        O  0.15976823  0.78674563  0.44360995    -0.79700
O774        O  0.23644715  0.90373661  0.39107928    -0.81200
O775        O  0.13272573  0.86821851  0.31466874    -0.81000
O776        O  0.09465076  0.78101492  0.32834160    -0.79600
Zn777      Zn  0.17246324  0.79711006  0.35091411     1.55700
O778        O  0.18628421  0.90699381  0.32901755    -0.81000
Cd779      Cd  0.12453847  0.82882979  0.34996914     1.59700
Cd780      Cd  0.16702619  0.83441740  0.42513532     1.59600
O781        O  0.09736922  0.83371855  0.39097105    -0.81000
O782        O  0.16712942  0.83366825  0.36999942    -1.91500
Cd783      Cd  0.20431878  0.87681025  0.35006670     1.59900
O784        O  0.12644818  0.84190299  0.44284930    -0.80900
O785        O  0.23530697  0.86874959  0.31464653    -0.79600
C786        C  0.16210469  0.76375713  0.42548817     0.82900
C787        C  0.10306078  0.76022062  0.31539136     0.82600
O788        O  0.21924929  0.81488442  0.32906125    -0.78600
C789        C  0.15761779  0.89886998  0.31472269     0.83400
O790        O  0.16821046  0.76660512  0.39144930    -0.78600
C791        C  0.10113896  0.83992104  0.42496894     0.83500
C792        C  0.23865119  0.90007634  0.42514882     0.83900
O793        O  0.21505164  0.87494812  0.44307702    -0.81100
O794        O  0.39800377  0.75624267  0.39067316    -0.78600
C795        C  0.49456781  0.84148542  0.41453833     0.82500
O796        O  0.38070694  0.84699926  0.44511771    -0.79700
O797        O  0.47764834  0.91284092  0.35264697    -0.81200
O798        O  0.41082233  0.79819580  0.29254342    -0.81000
O799        O  0.35629281  0.75450946  0.35720337    -0.79600
Zn800      Zn  0.41835281  0.80474615  0.40798751     1.55700
O801        O  0.46362661  0.84317677  0.29638989    -0.81000
Cd802      Cd  0.38515333  0.80248249  0.33561420     1.59700
Cd803      Cd  0.39804538  0.86228986  0.39080933     1.59600
O804        O  0.35521860  0.81998395  0.31433338    -0.81000
O805        O  0.41742140  0.83423609  0.37161133    -1.91500
Cd806      Cd  0.46398663  0.86118619  0.35007862     1.59900
O807        O  0.35792033  0.85646000  0.35700819    -0.80900
O808        O  0.49911753  0.85644434  0.38368834    -0.79600
C809        C  0.37906035  0.82173634  0.46276468     0.82900
C810        C  0.36938591  0.73955818  0.37455250     0.82600
O811        O  0.46501649  0.82194761  0.42740367    -0.78600
C812        C  0.44046496  0.81694532  0.27938799     0.83400
O813        O  0.39111796  0.80393404  0.44993996    -0.78600
C814        C  0.34639008  0.84053987  0.32684570     0.83500
C815        C  0.46472730  0.92891121  0.36870246     0.83900
O816        O  0.43608879  0.91353534  0.38556132    -0.81100
C817        C  0.32303497  0.84659364  0.30480769     0.80100
N818        N  0.33129789  0.85732489  0.26955977    -0.78200
C819        C  0.31010449  0.86382833  0.24926004     0.82600
N820        N  0.28066182  0.85930293  0.26426902    -0.78100
C821        C  0.27185139  0.84763778  0.29882768     0.82700
N822        N  0.29326057  0.84160642  0.31932212    -0.79800
C823        C  0.32295812  0.97749427  0.43669265     0.80100
N824        N  0.29319831  0.95306834  0.42209025    -0.78200
C825        C  0.27035914  0.92625355  0.44261455     0.82600
N826        N  0.27811931  0.92343089  0.47776681    -0.78100
C827        C  0.30819002  0.94782108  0.99267271     0.82700
N828        N  0.33035377  0.97504489  0.47218041    -0.79800
C829        C  0.13682626  0.94783092  0.24921599     0.80100
N830        N  0.14109922  0.92281950  0.26441906    -0.78200
C831        C  0.15292073  0.92587979  0.29889613     0.82600
N832        N  0.15945433  0.95366680  0.31907937    -0.78100
C833        C  0.15472045  0.97855140  0.30438284     0.82700
N834        N  0.14378741  0.97586618  0.26921491    -0.79800
C835        C  0.35171445  0.65083243  0.37550856     0.80100
N836        N  0.31712928  0.63322360  0.37534252    -0.78200
C837        C  0.29960212  0.65024803  0.37542790     0.82600
N838        N  0.31664509  0.68484212  0.37549360    -0.78100
C839        C  0.35121391  0.70245388  0.37564587     0.82700
N840        N  0.36877206  0.68546134  0.37555363    -0.79800
C841        C  0.46575961  0.98395735  0.61850065     0.80100
N842        N  0.48345216  0.51873095  0.61852865    -0.78200
C843        C  0.01819562  0.53610000  0.61844946     0.82600
N844        N  0.03523858  0.51843260  0.61840333    -0.78100
C845        C  0.01778604  0.98365327  0.61835268     0.82700
N846        N  0.48305544  0.96654707  0.61843728    -0.79000
C847        C  0.14973337  0.85190573  0.61998884     0.80100
N848        N  0.13268424  0.81729080  0.61987828    -0.78200
C849        C  0.15021361  0.80029407  0.61978022     0.82600
N850        N  0.18478169  0.81788018  0.61984493    -0.78100
C851        C  0.20184047  0.85247869  0.61994776     0.82700
N852        N  0.18432578  0.86952564  0.62003850    -0.79800
C853        C  0.34533133  0.82375625  0.55473387     0.80100
N854        N  0.34021441  0.79374168  0.56881703    -0.78200
C855        C  0.34672073  0.77271332  0.54816422     0.82600
N856        N  0.35912361  0.78223745  0.51392775    -0.78100
C857        C  0.36378453  0.81192036  0.99934979     0.82700
N858        N  0.35672467  0.83266590  0.51977634    -0.79800
O859        O  0.14374153  0.96424566  0.56403930    -0.78600
C860        C  0.13081809  0.87003489  0.62030744     0.82500
O861        O  0.03544972  0.87891205  0.54635855    -0.79700
O862        O  0.03497098  0.85602987  0.67782716    -0.81200
O863        O  0.11939843  0.96512110  0.69483942    -0.81000
O864        O  0.14298834  0.99853260  0.60729417    -0.79600
Zn865      Zn  0.11446797  0.91757278  0.58418078     1.55700
O866        O  0.11135034  0.91234749  0.69954499    -0.81000
Cd867      Cd  0.10266670  0.96397757  0.64044492     1.59700
Cd868      Cd  0.03634645  0.89738520  0.59980577     1.59600
O869        O  0.06503668  0.97765428  0.63557111    -0.81000
O870        O  0.08349212  0.91717905  0.61961927    -1.91500
Cd871      Cd  0.08246245  0.88565313  0.65664712     1.59900
O872        O  0.02321175  0.93563889  0.60259378    -0.80900
O873        O  0.10243804  0.85692196  0.63707597    -0.79600
C874        C  0.05898922  0.87666325  0.52928032     0.82900
C875        C  0.15355906  0.99386095  0.57667245     0.82600
O876        O  0.14294861  0.89849713  0.60373573    -0.78600
C877        C  0.12206627  0.94204377  0.71240429     0.83400
O878        O  0.08881698  0.88876731  0.54229284    -0.78600
C879        C  0.03638639  0.96460423  0.61880949     0.83500
C880        C  0.00568319  0.84704944  0.66498188     0.83900
O881        O  0.00156142  0.85804710  0.63431307    -0.81100
C882        C  0.18913029  0.55399084  0.99930376     0.80100
N883        N  0.16831226  0.52586672  0.51940291    -0.78200
C884        C  0.17684334  0.52326441  0.55446125     0.82600
N885        N  0.20648564  0.54831874  0.56895003    -0.78100
C886        C  0.22752504  0.57618927  0.54867944     0.82700
N887        N  0.21848595  0.57917631  0.51428233    -0.79800
C888        C  0.47612478  0.82334828  0.68670879     0.80100
N889        N  0.45178146  0.79376651  0.67171298    -0.78200
C890        C  0.42492311  0.77069647  0.69195299     0.82600
N891        N  0.42202187  0.77799006  0.72725558    -0.78100
C892        C  0.44632654  0.80787916  0.74257876     0.82700
N893        N  0.47358867  0.83032653  0.72233006    -0.79800
O894        O  0.31391686  0.71970007  0.57789581    -0.78600
C895        C  0.25946823  0.60308988  0.56430915     0.82500
O896        O  0.28607152  0.66018156  0.69240196    -0.79700
O897        O  0.33326588  0.59805733  0.64014978    -0.81200
O898        O  0.40640020  0.68706169  0.57799621    -0.81000
O899        O  0.36781002  0.73600286  0.56356036    -0.79600
Zn900      Zn  0.29617824  0.67271623  0.59964292     1.55700
O901        O  0.36795324  0.63329603  0.56381987    -0.81000
Cd902      Cd  0.37598845  0.70495810  0.59889748     1.59700
Cd903      Cd  0.33356211  0.66758648  0.67380463     1.59600
O904        O  0.40271590  0.73708313  0.64010380    -0.81000
O905        O  0.33287155  0.66758316  0.61867351    -1.91500
Cd906      Cd  0.32828824  0.62497487  0.59882109     1.59900
O907        O  0.37375945  0.71547336  0.69194518    -0.80900
O908        O  0.28041496  0.59484004  0.57719256    -0.79600
C909        C  0.26294135  0.66228148  0.67436069     0.82900
C910        C  0.34247008  0.74097226  0.56364719     0.82600
O911        O  0.26490416  0.63361015  0.56588206    -0.78600
C912        C  0.39852454  0.65834207  0.56390806     0.83400
O913        O  0.26559918  0.66825729  0.64028858    -0.78600
C914        C  0.39890949  0.73914533  0.67417625     0.83500
C915        C  0.33940511  0.60202144  0.67417045     0.83900
O916        O  0.34122829  0.62734605  0.69184570    -0.81100
O917        O  0.31948043  0.85671664  0.56478543    -0.78600
C918        C  0.23892410  0.87123458  0.62024313     0.82500
O919        O  0.34343782  0.96583468  0.54647691    -0.79700
O920        O  0.32127762  0.96620052  0.67826609    -0.81200
O921        O  0.34521505  0.88167602  0.69506394    -0.81000
O922        O  0.35525157  0.85807614  0.60745619    -0.79600
Zn923      Zn  0.30274279  0.88661353  0.58444537     1.55700
O924        O  0.30026769  0.88929997  0.69945533    -0.81000
Cd925      Cd  0.36108736  0.89851278  0.64061644     1.59700
Cd926      Cd  0.36084229  0.96499240  0.60000152     1.59600
O927        O  0.41246445  0.93645571  0.63569754    -0.81000
O928        O  0.33351009  0.91769022  0.61976358    -1.91500
Cd929      Cd  0.30307961  0.91875821  0.65681019     1.59900
O930        O  0.41227160  0.97838987  0.60291709    -0.80900
O931        O  0.25449204  0.89957640  0.63705544    -0.79600
C932        C  0.31778814  0.94215011  0.52929370     0.82900
C933        C  0.33946998  0.84708236  0.57714770     0.82600
O934        O  0.25499421  0.85881419  0.60380392    -0.78600
C935        C  0.31925821  0.87870303  0.71244649     0.83400
O936        O  0.30013437  0.91224486  0.54226318    -0.78600
C937        C  0.42807600  0.96522769  0.61903917     0.83500
C938        C  0.34118329  0.99555713  0.66515631     0.83900
O939        O  0.35603436  0.99973916  0.63430096    -0.81100
C940        C  0.36065595  0.55472106  0.74273955     0.80100
N941        N  0.35613329  0.52760283  0.72248942    -0.78200
C942        C  0.34681885  0.52508008  0.68680519     0.82600
N943        N  0.34146007  0.54931184  0.67174152    -0.78100
C944        C  0.34496612  0.57604001  0.69198803     0.82700
N945        N  0.35498777  0.57891989  0.72735374    -0.79800
C946        C  0.17891167  0.65571734  0.68659536     0.80100
N947        N  0.17191936  0.64628666  0.72226291    -0.78200
C948        C  0.19430513  0.64151093  0.74257374     0.82600
N949        N  0.22409471  0.64701291  0.72723727    -0.78100
C950        C  0.23144753  0.65710084  0.69191241     0.82700
N951        N  0.20845710  0.66088390  0.67156767    -0.79800
O952        O  0.03753990  0.68190077  0.56399934    -0.78600
C953        C  0.13201506  0.76319864  0.62003409     0.82500
O954        O  0.12298814  0.65859397  0.54645126    -0.79700
O955        O  0.14594883  0.68153636  0.67769748    -0.81200
O956        O  0.03670268  0.65636593  0.69480257    -0.81000
O957        O  0.00320252  0.64673607  0.60723133    -0.79600
Zn958      Zn  0.08421556  0.69911983  0.58398803     1.55700
O959        O  0.08946488  0.70117127  0.69952338    -0.81000
Cd960      Cd  0.03772919  0.64086062  0.64031651     1.59700
Cd961      Cd  0.10450119  0.64119544  0.59994913     1.59600
O962        O  0.02407694  0.58944673  0.63539391    -0.81000
O963        O  0.08458046  0.66854203  0.61954806    -1.91500
Cd964      Cd  0.11610468  0.69910513  0.65656767     1.59900
O965        O  0.06633076  0.58968177  0.60293984    -0.80900
O966        O  0.14489433  0.74787296  0.63703857    -0.79600
C967        C  0.12515236  0.68432129  0.52925336     0.82900
C968        C  0.00791530  0.66210455  0.57664719     0.82600
O969        O  0.10369177  0.74689622  0.60326867    -0.78600
C970        C  0.05980863  0.68208281  0.71241604     0.83400
O971        O  0.11287204  0.70193362  0.54210900    -0.78600
C972        C  0.03725523  0.57383429  0.61891700     0.83500
C973        C  0.15509642  0.66136176  0.66485456     0.83900
O974        O  0.14402945  0.64607263  0.63428413    -0.81100
C975        C  0.47857108  0.65601077  0.55438728     0.80100
N976        N  0.45354484  0.66068752  0.56875420    -0.78200
C977        C  0.42573481  0.65375616  0.54839628     0.82600
N978        N  0.42275674  0.64148697  0.51411804    -0.78100
C979        C  0.44789414  0.63725299  0.99926344     0.82700
N980        N  0.47595842  0.64467824  0.51940745    -0.79800
C981        C  0.48350185  0.96663147  0.86785676     0.80100
N982        N  0.46611324  0.98394438  0.86781142    -0.78200
C983        C  0.48319316  0.51869904  0.86769501     0.82600
N984        N  0.01794469  0.53618598  0.86774632    -0.78100
C985        C  0.03560100  0.51913424  0.86777248     0.82700
N986        N  0.01824033  0.98434317  0.86788195    -0.79800
O987        O  0.24610263  0.64356309  0.89057843    -0.78600
C988        C  0.16127711  0.65585532  0.91459899     0.82500
O989        O  0.15463805  0.53588684  0.94478580    -0.79700
O990        O  0.08940653  0.56739514  0.85281172    -0.81200
O991        O  0.20391466  0.61552366  0.79240493    -0.81000
O992        O  0.24738059  0.60359719  0.85656398    -0.79600
Zn993      Zn  0.19756500  0.61597561  0.90775436     1.55700
O994        O  0.15900401  0.62330924  0.79643362    -0.81000
Cd995      Cd  0.19945363  0.58507444  0.83511510     1.59700
Cd996      Cd  0.13980573  0.53813019  0.89044409     1.59600
O997        O  0.18137173  0.53756567  0.81345189    -0.81000
O998        O  0.16796817  0.58568762  0.87137111    -1.91500
Cd999      Cd  0.14110345  0.60546260  0.85014184     1.59900
O1000       O  0.14564407  0.50384598  0.85675076    -0.80900
O1001       O  0.14609774  0.64535310  0.88390040    -0.79600
C1002       C  0.17977901  0.55948236  0.96255828     0.82900
C1003       C  0.26253600  0.63147937  0.87425564     0.82600
O1004       O  0.18087506  0.64587013  0.92722832    -0.78600
C1005       C  0.18520839  0.62647913  0.77936463     0.83400
O1006       O  0.19781957  0.58938133  0.94975448    -0.78600
C1007       C  0.16106249  0.50815258  0.82627049     0.83500
C1008       C  0.07330581  0.53817821  0.86856909     0.83900
O1009       O  0.08864496  0.52477365  0.88513479    -0.81100
C1010       C  0.15592152  0.67968288  0.93677923     0.80100
N1011       N  0.16116875  0.70945422  0.92217945    -0.78200
C1012       C  0.15698439  0.73209806  0.94274346     0.82600
N1013       N  0.14629191  0.72413114  0.97784475    -0.78100
C1014       C  0.14068274  0.69408999  0.99272885     0.82700
N1015       N  0.14591951  0.67210168  0.97223460    -0.79800
C1016       C  0.05413767  0.69084422  0.74937077     0.80100
N1017       N  0.02599696  0.66973746  0.76925175    -0.78200
C1018       C  0.02338037  0.67776431  0.80452268     0.82600
N1019       N  0.04843712  0.70714937  0.81945006    -0.78100
C1020       C  0.07634366  0.72841184  0.79942857     0.82700
N1021       N  0.07932413  0.71995215  0.76479382    -0.79800
O1022       O  0.35828303  0.60383516  0.89045828    -0.78600
C1023       C  0.34672418  0.50680795  0.91457955     0.82500
O1024       O  0.46599194  0.62069859  0.94489657    -0.79700
O1025       O  0.43515720  0.52424297  0.85239581    -0.81200
O1026       O  0.38636141  0.59030397  0.79268594    -0.81000
O1027       O  0.39855396  0.64554894  0.85703595    -0.79600
Zn1028     Zn  0.38601807  0.58311231  0.90779567     1.55700
O1029       O  0.37898892  0.53768358  0.79644393    -0.81000
Cd1030     Cd  0.41693994  0.61615159  0.83532652     1.59700
Cd1031     Cd  0.46375536  0.60347376  0.89067161     1.59600
O1032       O  0.46438897  0.64545247  0.81349999    -0.81000
O1033       O  0.41635419  0.58398763  0.87147548    -1.91500
Cd1034     Cd  0.39691370  0.53747668  0.85001171     1.59900
O1035       O  0.49796479  0.64353218  0.85692268    -0.80900
O1036       O  0.35730497  0.50226080  0.88386738    -0.79600
C1037       C  0.44238228  0.62219282  0.96261692     0.82900
C1038       C  0.37048811  0.63255758  0.87439921     0.82600
O1039       O  0.35642575  0.53637654  0.92719704    -0.78600
C1040       C  0.37561509  0.56068833  0.77953121     0.83400
O1041       O  0.41250559  0.61015372  0.94981956    -0.78600
C1042       C  0.49372698  0.65453979  0.82635357     0.83500
C1043       C  0.46416073  0.53729707  0.86848698     0.83900
O1044       O  0.47728539  0.56584725  0.88546483    -0.81100
C1045       C  0.02382757  0.84686567  0.93658706     0.80100
N1046       N  0.02621014  0.85650719  0.97213852    -0.78200
C1047       C  0.05330355  0.86139598  0.49264443     0.82600
N1048       N  0.07765181  0.85576159  0.97766221    -0.78100
C1049       C  0.07493096  0.84538054  0.94244321     0.82700
N1050       N  0.04822074  0.84155336  0.92190500    -0.79800
O1051       O  0.13356513  0.76574831  0.81708116    -0.78600
C1052       C  0.24032842  0.84343130  0.81467043     0.82500
O1053       O  0.15976843  0.78674543  0.94360952    -0.79700
O1054       O  0.23644716  0.90373657  0.89107962    -0.81200
O1055       O  0.13272558  0.86821833  0.81466879    -0.81000
O1056       O  0.09465065  0.78101515  0.82834176    -0.79600
Zn1057     Zn  0.17246322  0.79711010  0.85091414     1.55700
O1058       O  0.18628416  0.90699383  0.82901753    -0.81000
Cd1059     Cd  0.12453842  0.82882976  0.84996917     1.59700
Cd1060     Cd  0.16702630  0.83441753  0.92513521     1.59600
O1061       O  0.09736915  0.83371838  0.89097120    -0.81000
O1062       O  0.16712944  0.83366824  0.86999944    -1.91500
Cd1063     Cd  0.20431886  0.87681038  0.85006676     1.59900
O1064       O  0.12644816  0.84190295  0.94284937    -0.80900
O1065       O  0.23530724  0.86874898  0.81464658    -0.79600
C1066       C  0.16210433  0.76375701  0.92548961     0.82900
C1067       C  0.10306096  0.76022047  0.81539125     0.82600
O1068       O  0.21924916  0.81488387  0.82906148    -0.78600
C1069       C  0.15761805  0.89887041  0.81472285     0.83400
O1070       O  0.16821060  0.76660530  0.89144843    -0.78600
C1071       C  0.10113924  0.83992118  0.92496865     0.83500
C1072       C  0.23865180  0.90007711  0.92514815     0.83900
O1073       O  0.21505140  0.87494764  0.94307738    -0.81100
O1074       O  0.39800448  0.75624288  0.89067357    -0.78600
C1075       C  0.49456861  0.84148582  0.91453800     0.82500
O1076       O  0.38070688  0.84699886  0.94511826    -0.79700
O1077       O  0.47764802  0.91284104  0.85264732    -0.81200
O1078       O  0.41082236  0.79819602  0.79254352    -0.81000
O1079       O  0.35629305  0.75450913  0.85720380    -0.79600
Zn1080     Zn  0.41835276  0.80474611  0.90798756     1.55700
O1081       O  0.46362669  0.84317708  0.79639007    -0.81000
Cd1082     Cd  0.38515328  0.80248255  0.83561424     1.59700
Cd1083     Cd  0.39804534  0.86228996  0.89080938     1.59600
O1084       O  0.35521893  0.81998396  0.81433356    -0.81000
O1085       O  0.41742146  0.83423617  0.87161138    -1.91500
Cd1086     Cd  0.46398652  0.86118609  0.85007866     1.59900
O1087       O  0.35792048  0.85646015  0.85700851    -0.80900
O1088       O  0.49911738  0.85644415  0.88368850    -0.79600
C1089       C  0.37906051  0.82173682  0.96276365     0.82900
C1090       C  0.36938482  0.73955866  0.87455165     0.82600
O1091       O  0.46501593  0.82194730  0.92740381    -0.78600
C1092       C  0.44046481  0.81694486  0.77938762     0.83400
O1093       O  0.39111804  0.80393383  0.94994007    -0.78600
C1094       C  0.34638961  0.84054012  0.82684499     0.83500
C1095       C  0.46472771  0.92891108  0.86870226     0.83900
O1096       O  0.43608869  0.91353520  0.88556132    -0.81100
C1097       C  0.32303529  0.84659375  0.80480834     0.80100
N1098       N  0.33129761  0.85732501  0.76955958    -0.78200
C1099       C  0.31010529  0.86382861  0.74925989     0.82600
N1100       N  0.28066115  0.85930264  0.76426990    -0.78100
C1101       C  0.27185169  0.84763797  0.79882670     0.82700
N1102       N  0.29326079  0.84160631  0.81932239    -0.79800
C1103       C  0.32295801  0.97749389  0.93669307     0.80100
N1104       N  0.29319798  0.95306805  0.92209036    -0.78200
C1105       C  0.27035902  0.92625345  0.94261385     0.82600
N1106       N  0.27811960  0.92343099  0.97776725    -0.78100
C1107       C  0.30819036  0.94782129  0.49267328     0.82700
N1108       N  0.33035385  0.97504494  0.97218055    -0.79800
C1109       C  0.13682626  0.94783041  0.74921566     0.80100
N1110       N  0.14109939  0.92281993  0.76441917    -0.78200
C1111       C  0.15292077  0.92587940  0.79889626     0.82600
N1112       N  0.15945424  0.95366678  0.81907932    -0.78100
C1113       C  0.15472034  0.97855115  0.80438273     0.82700
N1114       N  0.14378745  0.97586662  0.76921491    -0.79800
C1115       C  0.35171523  0.65083323  0.87550860     0.80100
N1116       N  0.31712916  0.63322344  0.87534260    -0.78200
C1117       C  0.29960203  0.65024761  0.87542792     0.82600
N1118       N  0.31664581  0.68484285  0.87549371    -0.78100
C1119       C  0.35121356  0.70245343  0.87564584     0.82700
N1120       N  0.36877212  0.68546086  0.87555365    -0.79800
C1121       C  0.96576032  0.48395746  0.11850052     0.80100
N1122       N  0.98345218  0.01873090  0.11852863    -0.78200
C1123       C  0.51819565  0.03610035  0.11844968     0.82600
N1124       N  0.53523837  0.01843214  0.11840341    -0.78100
C1125       C  0.51778626  0.48365336  0.11835261     0.82700
N1126       N  0.98305524  0.46654704  0.11843729    -0.79000
C1127       C  0.64973267  0.35190541  0.11998871     0.80100
N1128       N  0.63268398  0.31729118  0.11987831    -0.78200
C1129       C  0.65021486  0.30029437  0.11978020     0.82600
N1130       N  0.68478065  0.31787938  0.11984498    -0.78100
C1131       C  0.70184112  0.35247966  0.11994778     0.82700
N1132       N  0.68432628  0.36952555  0.12003846    -0.79800
C1133       C  0.84533094  0.32375625  0.05473413     0.80100
N1134       N  0.84021449  0.29374170  0.06881689    -0.78200
C1135       C  0.84672106  0.27271318  0.04816402     0.82600
N1136       N  0.85912369  0.28223760  0.01392759    -0.78100
C1137       C  0.86378460  0.31192018  0.49934899     0.82700
N1138       N  0.85672486  0.33266593  0.01977551    -0.79800
O1139       O  0.64374159  0.46424587  0.06403976    -0.78600
C1140       C  0.63081805  0.37003405  0.12030803     0.82500
O1141       O  0.53544987  0.37891211  0.04635867    -0.79700
O1142       O  0.53497095  0.35602974  0.17782726    -0.81200
O1143       O  0.61939838  0.46512092  0.19483952    -0.81000
O1144       O  0.64298802  0.49853271  0.10729494    -0.79600
Zn1145     Zn  0.61446806  0.41757279  0.08418077     1.55700
O1146       O  0.61135047  0.41234772  0.19954518    -0.81000
Cd1147     Cd  0.60266667  0.46397758  0.14044489     1.59700
Cd1148     Cd  0.53634642  0.39738519  0.09980572     1.59600
O1149       O  0.56503632  0.47765397  0.13557084    -0.81000
O1150       O  0.58349209  0.41717906  0.11961919    -1.91500
Cd1151     Cd  0.58246245  0.38565310  0.15664700     1.59900
O1152       O  0.52321170  0.43563887  0.10259379    -0.80900
O1153       O  0.60243810  0.35692205  0.13707571    -0.79600
C1154       C  0.55898903  0.37666315  0.02927977     0.82900
C1155       C  0.65355958  0.49386089  0.07667096     0.82600
O1156       O  0.64294877  0.39849773  0.10373535    -0.78600
C1157       C  0.62206596  0.44204352  0.21240371     0.83400
O1158       O  0.58881682  0.38876726  0.04229290    -0.78600
C1159       C  0.53638655  0.46460454  0.11880985     0.83500
C1160       C  0.50568383  0.34705002  0.16498116     0.83900
O1161       O  0.50156122  0.35804695  0.13431324    -0.81100
C1162       C  0.68913000  0.05399043  0.49930397     0.80100
N1163       N  0.66831238  0.02586658  0.01940362    -0.78200
C1164       C  0.67684318  0.02326452  0.05446136     0.82600
N1165       N  0.70648550  0.04831842  0.06895045    -0.78100
C1166       C  0.72752519  0.07618942  0.04867906     0.82700
N1167       N  0.71848590  0.07917613  0.01428249    -0.79800
C1168       C  0.97612421  0.32334743  0.18670869     0.80100
N1169       N  0.95178191  0.29376693  0.17171279    -0.78200
C1170       C  0.92492289  0.27069646  0.19195342     0.82600
N1171       N  0.92202194  0.27799009  0.22725548    -0.78100
C1172       C  0.94632634  0.30787889  0.24257851     0.82700
N1173       N  0.97358902  0.33032680  0.22233023    -0.79800
O1174       O  0.81391736  0.21970035  0.07789563    -0.78600
C1175       C  0.75946779  0.10309047  0.06430908     0.82500
O1176       O  0.78607111  0.16018159  0.19240177    -0.79700
O1177       O  0.83326595  0.09805748  0.14015013    -0.81200
O1178       O  0.90640050  0.18706224  0.07799641    -0.81000
O1179       O  0.86781048  0.23600287  0.06356021    -0.79600
Zn1180     Zn  0.79617822  0.17271624  0.09964300     1.55700
O1181       O  0.86795378  0.13329654  0.06381988    -0.81000
Cd1182     Cd  0.87598833  0.20495796  0.09889743     1.59700
Cd1183     Cd  0.83356206  0.16758649  0.17380457     1.59600
O1184       O  0.90271590  0.23708313  0.14010399    -0.81000
O1185       O  0.83287150  0.16758312  0.11867346    -1.91500
Cd1186     Cd  0.82828825  0.12497483  0.09882105     1.59900
O1187       O  0.87375934  0.21547338  0.19194534    -0.80900
O1188       O  0.78041536  0.09483977  0.07719278    -0.79600
C1189       C  0.76294177  0.16228141  0.17436131     0.82900
C1190       C  0.84246903  0.24097204  0.06364772     0.82600
O1191       O  0.76490420  0.13360980  0.06588223    -0.78600
C1192       C  0.89852364  0.15834057  0.06390756     0.83400
O1193       O  0.76559906  0.16825740  0.14028826    -0.78600
C1194       C  0.89890934  0.23914516  0.17417545     0.83500
C1195       C  0.83940497  0.10202089  0.17416964     0.83900
O1196       O  0.84122826  0.12734635  0.19184597    -0.81100
O1197       O  0.81948001  0.35671675  0.06478501    -0.78600
C1198       C  0.73892347  0.37123464  0.12024341     0.82500
O1199       O  0.84343736  0.46583441  0.04647651    -0.79700
O1200       O  0.82127757  0.46620039  0.17826646    -0.81200
O1201       O  0.84521524  0.38167597  0.19506387    -0.81000
O1202       O  0.85525134  0.35807605  0.10745578    -0.79600
Zn1203     Zn  0.80274276  0.38661351  0.08444535     1.55700
O1204       O  0.80026787  0.38929983  0.19945534    -0.81000
Cd1205     Cd  0.86108739  0.39851270  0.14061639     1.59700
Cd1206     Cd  0.86084226  0.46499238  0.10000149     1.59600
O1207       O  0.91246460  0.43645587  0.13569725    -0.81000
O1208       O  0.83351016  0.41769021  0.11976354    -1.91500
Cd1209     Cd  0.80307969  0.41875823  0.15681008     1.59900
O1210       O  0.91227161  0.47838992  0.10291693    -0.80900
O1211       O  0.75449221  0.39957633  0.13705526    -0.79600
C1212       C  0.81778912  0.44215083  0.02929454     0.82900
C1213       C  0.83947076  0.34708216  0.07714855     0.82600
O1214       O  0.75499455  0.35881413  0.10380370    -0.78600
C1215       C  0.81925810  0.37870307  0.21244656     0.83400
O1216       O  0.80013405  0.41224463  0.04226295    -0.78600
C1217       C  0.92807553  0.46522741  0.11903943     0.83500
C1218       C  0.84118380  0.49555733  0.16515558     0.83900
O1219       O  0.85603428  0.49973917  0.13430115    -0.81100
C1220       C  0.86065605  0.05472150  0.24273976     0.80100
N1221       N  0.85613308  0.02760262  0.22248893    -0.78200
C1222       C  0.84681898  0.02508006  0.18680565     0.82600
N1223       N  0.84146000  0.04931198  0.17174169    -0.78100
C1224       C  0.84496603  0.07604015  0.19198775     0.82700
N1225       N  0.85498773  0.07891977  0.22735416    -0.79800
C1226       C  0.67891173  0.15571751  0.18659535     0.80100
N1227       N  0.67191940  0.14628654  0.22226321    -0.78200
C1228       C  0.69430511  0.14151123  0.24257291     0.82600
N1229       N  0.72409458  0.14701289  0.22723702    -0.78100
C1230       C  0.73144778  0.15710075  0.19191315     0.82700
N1231       N  0.70845655  0.16088395  0.17156730    -0.79800
O1232       O  0.53753994  0.18190099  0.06399918    -0.78600
C1233       C  0.63201560  0.26319836  0.12003474     0.82500
O1234       O  0.62298807  0.15859395  0.04645142    -0.79700
O1235       O  0.64594873  0.18153660  0.17769765    -0.81200
O1236       O  0.53670255  0.15636573  0.19480225    -0.81000
O1237       O  0.50320268  0.14673641  0.10723058    -0.79600
Zn1238     Zn  0.58421557  0.19911985  0.08398802     1.55700
O1239       O  0.58946508  0.20117139  0.19952308    -0.81000
Cd1240     Cd  0.53772924  0.14086063  0.14031663     1.59700
Cd1241     Cd  0.60450109  0.14119532  0.09994921     1.59600
O1242       O  0.52407706  0.08944662  0.13539409    -0.81000
O1243       O  0.58458040  0.16854202  0.11954812    -1.91500
Cd1244     Cd  0.61610461  0.19910511  0.15656765     1.59900
O1245       O  0.56633083  0.08968185  0.10293980    -0.80900
O1246       O  0.64489418  0.24787325  0.13703827    -0.79600
C1247       C  0.62515267  0.18432135  0.02925275     0.82900
C1248       C  0.50791538  0.16210391  0.07664834     0.82600
O1249       O  0.60369126  0.24689611  0.10326833    -0.78600
C1250       C  0.55980876  0.18208331  0.21241710     0.83400
O1251       O  0.61287181  0.20193375  0.04210930    -0.78600
C1252       C  0.53725491  0.07383407  0.11891709     0.83500
C1253       C  0.65509645  0.16136147  0.16485432     0.83900
O1254       O  0.64402936  0.14607257  0.13428417    -0.81100
C1255       C  0.97857054  0.15601106  0.05438744     0.80100
N1256       N  0.95354563  0.16068744  0.06875403    -0.78200
C1257       C  0.92573446  0.15375640  0.04839614     0.82600
N1258       N  0.92275647  0.14148700  0.01411847    -0.78100
C1259       C  0.94789439  0.13725275  0.49926322     0.82700
N1260       N  0.97595843  0.14467805  0.01940710    -0.79800
C1261       C  0.98350149  0.46663089  0.36785671     0.80100
N1262       N  0.96611340  0.48394394  0.36781136    -0.78200
C1263       C  0.98319276  0.01869874  0.36769494     0.82600
N1264       N  0.51794500  0.03618607  0.36774642    -0.78100
C1265       C  0.53560065  0.01913397  0.36777245     0.82700
N1266       N  0.51824062  0.48434330  0.36788198    -0.79800
O1267       O  0.74610242  0.14356316  0.39057852    -0.78600
C1268       C  0.66127682  0.15585504  0.41459830     0.82500
O1269       O  0.65463825  0.03588689  0.44478596    -0.79700
O1270       O  0.58940626  0.06739489  0.35281194    -0.81200
O1271       O  0.70391468  0.11552377  0.29240455    -0.81000
O1272       O  0.74738054  0.10359735  0.35656397    -0.79600
Zn1273     Zn  0.69756496  0.11597560  0.40775430     1.55700
O1274       O  0.65900418  0.12330934  0.29643317    -0.81000
Cd1275     Cd  0.69945356  0.08507443  0.33511505     1.59700
Cd1276     Cd  0.63980565  0.03813021  0.39044397     1.59600
O1277       O  0.68137176  0.03756560  0.31345184    -0.81000
O1278       O  0.66796822  0.08568765  0.37137105    -1.91500
Cd1279     Cd  0.64110351  0.10546264  0.35014180     1.59900
O1280       O  0.64564393  0.00384590  0.35675077    -0.80900
O1281       O  0.64609805  0.14535329  0.38390075    -0.79600
C1282       C  0.67977842  0.05948199  0.46255779     0.82900
C1283       C  0.76253634  0.13147913  0.37425524     0.82600
O1284       O  0.68087510  0.14587012  0.42722837    -0.78600
C1285       C  0.68520788  0.12647870  0.27936580     0.83400
O1286       O  0.69781987  0.08938164  0.44975443    -0.78600
C1287       C  0.66106248  0.00815282  0.32627040     0.83500
C1288       C  0.57330618  0.03817875  0.36856870     0.83900
O1289       O  0.58864502  0.02477349  0.38513509    -0.81100
C1290       C  0.65592165  0.17968345  0.43677899     0.80100
N1291       N  0.66116882  0.20945389  0.42217917    -0.78200
C1292       C  0.65698429  0.23209796  0.44274409     0.82600
N1293       N  0.64629201  0.22413147  0.47784436    -0.78100
C1294       C  0.64068292  0.19408984  0.49272804     0.82700
N1295       N  0.64591919  0.17210179  0.47223541    -0.79800
C1296       C  0.55413726  0.19084373  0.24937013     0.80100
N1297       N  0.52599696  0.16973749  0.26925188    -0.78200
C1298       C  0.52338057  0.17776448  0.30452302     0.82600
N1299       N  0.54843710  0.20714915  0.31944973    -0.78100
C1300       C  0.57634362  0.22841202  0.29942920     0.82700
N1301       N  0.57932442  0.21995233  0.26479384    -0.79800
O1302       O  0.85828282  0.10383527  0.39045824    -0.78600
C1303       C  0.84672371  0.00680769  0.41458024     0.82500
O1304       O  0.96599155  0.12069859  0.44489688    -0.79700
O1305       O  0.93515767  0.02424323  0.35239596    -0.81200
O1306       O  0.88636146  0.09030391  0.29268601    -0.81000
O1307       O  0.89855359  0.14554897  0.35703600    -0.79600
Zn1308     Zn  0.88601804  0.08311232  0.40779565     1.55700
O1309       O  0.87898892  0.03768351  0.29644421    -0.81000
Cd1310     Cd  0.91693992  0.11615161  0.33532642     1.59700
Cd1311     Cd  0.96375527  0.10347374  0.39067153     1.59600
O1312       O  0.96438875  0.14545229  0.31349998    -0.81000
O1313       O  0.91635412  0.08398763  0.37147540    -1.91500
Cd1314     Cd  0.89691364  0.03747669  0.35001162     1.59900
O1315       O  0.99796466  0.14353214  0.35692275    -0.80900
O1316       O  0.85730502  0.00226086  0.38386729    -0.79600
C1317       C  0.94238291  0.12219299  0.46261658     0.82900
C1318       C  0.87048899  0.13255759  0.37439906     0.82600
O1319       O  0.85642592  0.03637660  0.42719671    -0.78600
C1320       C  0.87561477  0.06068845  0.27953058     0.83400
O1321       O  0.91250517  0.11015362  0.44981961    -0.78600
C1322       C  0.99372720  0.15454005  0.32635320     0.83500
C1323       C  0.96415992  0.03729648  0.36848650     0.83900
O1324       O  0.97728566  0.06584761  0.38546494    -0.81100
C1325       C  0.52382794  0.34686560  0.43658757     0.80100
N1326       N  0.52621017  0.35650707  0.47213839    -0.78200
C1327       C  0.55330343  0.36139615  0.99264489     0.82600
N1328       N  0.57765227  0.35576159  0.47766214    -0.78100
C1329       C  0.57493098  0.34538048  0.44244280     0.82700
N1330       N  0.54822054  0.34155343  0.42190501    -0.79800
O1331       O  0.63356502  0.26574825  0.31708114    -0.78600
C1332       C  0.74032893  0.34343108  0.31467016     0.82500
O1333       O  0.65976834  0.28674547  0.44360970    -0.79700
O1334       O  0.73644717  0.40373668  0.39107922    -0.81200
O1335       O  0.63272555  0.36821829  0.31466874    -0.81000
O1336       O  0.59465056  0.28101516  0.32834177    -0.79600
Zn1337     Zn  0.67246322  0.29711012  0.35091412     1.55700
O1338       O  0.68628385  0.40699361  0.32901743    -0.81000
Cd1339     Cd  0.62453846  0.32882974  0.34996914     1.59700
Cd1340     Cd  0.66702617  0.33441737  0.42513534     1.59600
O1341       O  0.59736916  0.33371837  0.39097074    -0.81000
O1342       O  0.66712941  0.33366823  0.36999942    -1.91500
Cd1343     Cd  0.70431877  0.37681023  0.35006674     1.59900
O1344       O  0.62644801  0.34190285  0.44284912    -0.80900
O1345       O  0.73530700  0.36874913  0.31464659    -0.79600
C1346       C  0.66210430  0.26375694  0.42548885     0.82900
C1347       C  0.60306110  0.26022032  0.31539123     0.82600
O1348       O  0.71924899  0.31488394  0.32906145    -0.78600
C1349       C  0.65761841  0.39887062  0.31472285     0.83400
O1350       O  0.66821064  0.26660529  0.39144893    -0.78600
C1351       C  0.60113934  0.33992136  0.42496957     0.83500
C1352       C  0.73865100  0.40007621  0.42514872     0.83900
O1353       O  0.71505177  0.37494812  0.44307707    -0.81100
O1354       O  0.89800413  0.25624274  0.39067334    -0.78600
C1355       C  0.99456794  0.34148552  0.41453817     0.82500
O1356       O  0.88070682  0.34699929  0.44511777    -0.79700
O1357       O  0.97764834  0.41284059  0.35264693    -0.81200
O1358       O  0.91082256  0.29819609  0.29254342    -0.81000
O1359       O  0.85629308  0.25450926  0.35720364    -0.79600
Zn1360     Zn  0.91835280  0.30474613  0.40798753     1.55700
O1361       O  0.96362691  0.34317718  0.29639012    -0.81000
Cd1362     Cd  0.88515337  0.30248259  0.33561422     1.59700
Cd1363     Cd  0.89804535  0.36228997  0.39080933     1.59600
O1364       O  0.85521869  0.31998377  0.31433322    -0.81000
O1365       O  0.91742146  0.33423618  0.37161134    -1.91500
Cd1366     Cd  0.96398662  0.36118617  0.35007862     1.59900
O1367       O  0.85792014  0.35645977  0.35700780    -0.80900
O1368       O  0.99911747  0.35644422  0.38368846    -0.79600
C1369       C  0.87906071  0.32173601  0.46276441     0.82900
C1370       C  0.86938549  0.23955881  0.37455197     0.82600
O1371       O  0.96501640  0.32194750  0.42740373    -0.78600
C1372       C  0.94046471  0.31694479  0.27938758     0.83400
O1373       O  0.89111785  0.30393413  0.44993997    -0.78600
C1374       C  0.84639049  0.34054047  0.32684635     0.83500
C1375       C  0.96472737  0.42891184  0.36870261     0.83900
O1376       O  0.93608881  0.41353518  0.38556122    -0.81100
C1377       C  0.82303422  0.34659358  0.30480777     0.80100
N1378       N  0.83129785  0.35732498  0.26955953    -0.78200
C1379       C  0.81010495  0.36382862  0.24925991     0.82600
N1380       N  0.78066175  0.35930289  0.26426923    -0.78100
C1381       C  0.77185123  0.34763780  0.29882743     0.82700
N1382       N  0.79326106  0.34160631  0.31932226    -0.79800
C1383       C  0.82295762  0.47749368  0.43669276     0.80100
N1384       N  0.79319863  0.45306875  0.42209002    -0.78200
C1385       C  0.77035891  0.42625319  0.44261489     0.82600
N1386       N  0.77811945  0.42343108  0.47776664    -0.78100
C1387       C  0.80818993  0.44782122  0.99267256     0.82700
N1388       N  0.83035391  0.47504512  0.47218032    -0.79800
C1389       C  0.63682648  0.44783056  0.24921623     0.80100
N1390       N  0.64109920  0.42281978  0.26441895    -0.78200
C1391       C  0.65292073  0.42587935  0.29889628     0.82600
N1392       N  0.65945432  0.45366676  0.31907931    -0.78100
C1393       C  0.65472039  0.47855141  0.30438277     0.82700
N1394       N  0.64378751  0.47586651  0.26921503    -0.79800
C1395       C  0.85171466  0.15083325  0.37550858     0.80100
N1396       N  0.81712926  0.13322353  0.37534250    -0.78200
C1397       C  0.79960177  0.15024763  0.37542794     0.82600
N1398       N  0.81664603  0.18484305  0.37549359    -0.78100
C1399       C  0.85121309  0.20245322  0.37564589     0.82700
N1400       N  0.86877232  0.18546087  0.37555361    -0.79800
C1401       C  0.96575922  0.48395705  0.61850065     0.80100
N1402       N  0.98345142  0.01873033  0.61852871    -0.78200
C1403       C  0.51819610  0.03610057  0.61844947     0.82600
N1404       N  0.53523857  0.01843224  0.61840332    -0.78100
C1405       C  0.51778549  0.48365293  0.61835263     0.82700
N1406       N  0.98305569  0.46654727  0.61843726    -0.79000
C1407       C  0.64973307  0.35190619  0.61998870     0.80100
N1408       N  0.63268416  0.31729102  0.61987824    -0.78200
C1409       C  0.65021474  0.30029461  0.61978028     0.82600
N1410       N  0.68478121  0.31787969  0.61984487    -0.78100
C1411       C  0.70184051  0.35247924  0.61994776     0.82700
N1412       N  0.68432634  0.36952557  0.62003847    -0.79800
C1413       C  0.84533126  0.32375624  0.55473376     0.80100
N1414       N  0.84021450  0.29374179  0.56881715    -0.78200
C1415       C  0.84672076  0.27271332  0.54816399     0.82600
N1416       N  0.85912363  0.28223713  0.51392797    -0.78100
C1417       C  0.86378449  0.31191907  0.99934997     0.82700
N1418       N  0.85672487  0.33266563  0.51977598    -0.79800
O1419       O  0.64374161  0.46424577  0.56403929    -0.78600
C1420       C  0.63081725  0.37003344  0.62030833     0.82500
O1421       O  0.53544991  0.37891210  0.54635853    -0.79700
O1422       O  0.53497070  0.35602957  0.67782718    -0.81200
O1423       O  0.61939829  0.46512098  0.69483931    -0.81000
O1424       O  0.64298851  0.49853270  0.60729407    -0.79600
Zn1425     Zn  0.61446800  0.41757283  0.58418081     1.55700
O1426       O  0.61135014  0.41234727  0.69954487    -0.81000
Cd1427     Cd  0.60266676  0.46397764  0.64044495     1.59700
Cd1428     Cd  0.53634646  0.39738528  0.59980578     1.59600
O1429       O  0.56503645  0.47765415  0.63557097    -0.81000
O1430       O  0.58349210  0.41717913  0.61961928    -1.91500
Cd1431     Cd  0.58246243  0.38565310  0.65664711     1.59900
O1432       O  0.52321170  0.43563899  0.60259378    -0.80900
O1433       O  0.60243848  0.35692231  0.63707562    -0.79600
C1434       C  0.55898889  0.37666305  0.52928013     0.82900
C1435       C  0.65355878  0.49386056  0.57667270     0.82600
O1436       O  0.64294905  0.39849801  0.60373532    -0.78600
C1437       C  0.62206658  0.44204393  0.71240462     0.83400
O1438       O  0.58881719  0.38876739  0.54229293    -0.78600
C1439       C  0.53638683  0.46460456  0.61880972     0.83500
C1440       C  0.50568387  0.34705010  0.66498156     0.83900
O1441       O  0.50156125  0.35804695  0.63431326    -0.81100
C1442       C  0.68913043  0.05399085  0.99930379     0.80100
N1443       N  0.66831269  0.02586715  0.51940286    -0.78200
C1444       C  0.67684268  0.02326387  0.55446161     0.82600
N1445       N  0.70648552  0.04831855  0.56895009    -0.78100
C1446       C  0.72752550  0.07618986  0.54867936     0.82700
N1447       N  0.71848627  0.07917642  0.51428268    -0.79800
C1448       C  0.97612402  0.32334765  0.68670928     0.80100
N1449       N  0.95178120  0.29376620  0.67171270    -0.78200
C1450       C  0.92492378  0.27069737  0.69195377     0.82600
N1451       N  0.92202156  0.27798979  0.72725540    -0.78100
C1452       C  0.94632641  0.30787872  0.74257847     0.82700
N1453       N  0.97358891  0.33032673  0.72232983    -0.79800
O1454       O  0.81391684  0.21970009  0.57789582    -0.78600
C1455       C  0.75946716  0.10308965  0.56430862     0.82500
O1456       O  0.78607172  0.16018146  0.69240217    -0.79700
O1457       O  0.83326595  0.09805751  0.64014961    -0.81200
O1458       O  0.90640027  0.18706186  0.57799629    -0.81000
O1459       O  0.86781000  0.23600294  0.56356042    -0.79600
Zn1460     Zn  0.79617827  0.17271621  0.59964294     1.55700
O1461       O  0.86795360  0.13329644  0.56381987    -0.81000
Cd1462     Cd  0.87598845  0.20495804  0.59889751     1.59700
Cd1463     Cd  0.83356197  0.16758641  0.67380461     1.59600
O1464       O  0.90271590  0.23708314  0.64010414    -0.81000
O1465       O  0.83287152  0.16758316  0.61867350    -1.91500
Cd1466     Cd  0.82828819  0.12497473  0.59882108     1.59900
O1467       O  0.87375956  0.21547360  0.69194523    -0.80900
O1468       O  0.78041549  0.09484003  0.57719290    -0.79600
C1469       C  0.76294073  0.16228167  0.67436033     0.82900
C1470       C  0.84247031  0.24097234  0.56364723     0.82600
O1471       O  0.76490439  0.13361005  0.56588219    -0.78600
C1472       C  0.89852426  0.15834128  0.56390786     0.83400
O1473       O  0.76559919  0.16825719  0.64028877    -0.78600
C1474       C  0.89890902  0.23914462  0.67417540     0.83500
C1475       C  0.83940514  0.10202119  0.67417085     0.83900
O1476       O  0.84122824  0.12734599  0.69184562    -0.81100
O1477       O  0.81948037  0.35671682  0.56478524    -0.78600
C1478       C  0.73892386  0.37123496  0.62024348     0.82500
O1479       O  0.84343775  0.46583475  0.54647681    -0.79700
O1480       O  0.82127766  0.46620049  0.67826624    -0.81200
O1481       O  0.84521497  0.38167594  0.69506395    -0.81000
O1482       O  0.85525139  0.35807599  0.60745589    -0.79600
Zn1483     Zn  0.80274284  0.38661360  0.58444537     1.55700
O1484       O  0.80026767  0.38930001  0.69945530    -0.81000
Cd1485     Cd  0.86108736  0.39851273  0.64061647     1.59700
Cd1486     Cd  0.86084222  0.46499233  0.60000151     1.59600
O1487       O  0.91246442  0.43645589  0.63569742    -0.81000
O1488       O  0.83351013  0.41769024  0.61976361    -1.91500
Cd1489     Cd  0.80307968  0.41875830  0.65681023     1.59900
O1490       O  0.91227130  0.47838988  0.60291702    -0.80900
O1491       O  0.75449210  0.39957616  0.63705523    -0.79600
C1492       C  0.81778865  0.44215058  0.52929381     0.82900
C1493       C  0.83947054  0.34708262  0.57714826     0.82600
O1494       O  0.75499457  0.35881428  0.60380378    -0.78600
C1495       C  0.81925844  0.37870289  0.71244653     0.83400
O1496       O  0.80013403  0.41224453  0.54226319    -0.78600
C1497       C  0.92807636  0.46522746  0.61903931     0.83500
C1498       C  0.84118325  0.49555717  0.66515640     0.83900
O1499       O  0.85603445  0.49973928  0.63430086    -0.81100
C1500       C  0.86065599  0.05472088  0.74273950     0.80100
N1501       N  0.85613327  0.02760275  0.72248953    -0.78200
C1502       C  0.84681890  0.02508024  0.68680510     0.82600
N1503       N  0.84146015  0.04931181  0.67174169    -0.78100
C1504       C  0.84496623  0.07604031  0.69198791     0.82700
N1505       N  0.85498769  0.07892005  0.72735357    -0.79800
C1506       C  0.67891121  0.15571725  0.68659543     0.80100
N1507       N  0.67191922  0.14628662  0.72226278    -0.78200
C1508       C  0.69430578  0.14151110  0.74257366     0.82600
N1509       N  0.72409392  0.14701272  0.72723755    -0.78100
C1510       C  0.73144831  0.15710099  0.69191228     0.82700
N1511       N  0.70845716  0.16088400  0.67156755    -0.79800
O1512       O  0.53754031  0.18190123  0.56399909    -0.78600
C1513       C  0.63201485  0.26319855  0.62003408     0.82500
O1514       O  0.62298819  0.15859432  0.54645111    -0.79700
O1515       O  0.64594867  0.18153633  0.67769734    -0.81200
O1516       O  0.53670230  0.15636566  0.69480234    -0.81000
O1517       O  0.50320263  0.14673623  0.60723103    -0.79600
Zn1518     Zn  0.58421555  0.19911994  0.58398804     1.55700
O1519       O  0.58946441  0.20117094  0.69952355    -0.81000
Cd1520     Cd  0.53772927  0.14086072  0.64031648     1.59700
Cd1521     Cd  0.60450120  0.14119543  0.59994913     1.59600
O1522       O  0.52407710  0.08944693  0.63539388    -0.81000
O1523       O  0.58458053  0.16854211  0.61954807    -1.91500
Cd1524     Cd  0.61610476  0.19910522  0.65656767     1.59900
O1525       O  0.56633096  0.08968199  0.60293975    -0.80900
O1526       O  0.64489447  0.24787317  0.63703853    -0.79600
C1527       C  0.62515245  0.18432094  0.52925330     0.82900
C1528       C  0.50791506  0.16210400  0.57664783     0.82600
O1529       O  0.60369162  0.24689620  0.60326863    -0.78600
C1530       C  0.55980979  0.18208375  0.71241599     0.83400
O1531       O  0.61287184  0.20193399  0.54210914    -0.78600
C1532       C  0.53725483  0.07383377  0.61891719     0.83500
C1533       C  0.65509688  0.16136197  0.66485485     0.83900
O1534       O  0.64402943  0.14607264  0.63428405    -0.81100
C1535       C  0.97857089  0.15601116  0.55438761     0.80100
N1536       N  0.95354554  0.16068745  0.56875411    -0.78200
C1537       C  0.92573418  0.15375625  0.54839597     0.82600
N1538       N  0.92275664  0.14148698  0.51411849    -0.78100
C1539       C  0.94789474  0.13725288  0.99926350     0.82700
N1540       N  0.97595836  0.14467803  0.51940718    -0.79800
C1541       C  0.98350170  0.46663139  0.86785683     0.80100
N1542       N  0.96611350  0.48394439  0.86781143    -0.78200
C1543       C  0.98319300  0.01869891  0.86769509     0.82600
N1544       N  0.51794482  0.03618594  0.86774630    -0.78100
C1545       C  0.53560009  0.01913417  0.86777235     0.82700
N1546       N  0.51823992  0.48434289  0.86788196    -0.79800
O1547       O  0.74610241  0.14356293  0.89057846    -0.78600
C1548       C  0.66127739  0.15585543  0.91459924     0.82500
O1549       O  0.65463772  0.03588643  0.94478575    -0.79700
O1550       O  0.58940617  0.06739501  0.85281179    -0.81200
O1551       O  0.70391472  0.11552357  0.79240491    -0.81000
O1552       O  0.74738049  0.10359729  0.85656400    -0.79600
Zn1553     Zn  0.69756490  0.11597557  0.90775439     1.55700
O1554       O  0.65900386  0.12330927  0.79643357    -0.81000
Cd1555     Cd  0.69945348  0.08507442  0.83511509     1.59700
Cd1556     Cd  0.63980559  0.03813014  0.89044408     1.59600
O1557       O  0.68137132  0.03756511  0.81345205    -0.81000
O1558       O  0.66796815  0.08568759  0.87137112    -1.91500
Cd1559     Cd  0.64110350  0.10546269  0.85014183     1.59900
O1560       O  0.64564385  0.00384578  0.85675088    -0.80900
O1561       O  0.64609779  0.14535323  0.88390027    -0.79600
C1562       C  0.67977958  0.05948324  0.96255818     0.82900
C1563       C  0.76253614  0.13147949  0.87425552     0.82600
O1564       O  0.68087496  0.14587003  0.92722830    -0.78600
C1565       C  0.68520809  0.12647900  0.77936471     0.83400
O1566       O  0.69781926  0.08938083  0.94975461    -0.78600
C1567       C  0.66106309  0.00815354  0.82627024     0.83500
C1568       C  0.57330666  0.03817845  0.86856923     0.83900
O1569       O  0.58864469  0.02477358  0.88513473    -0.81100
C1570       C  0.65592151  0.17968305  0.93677910     0.80100
N1571       N  0.66116885  0.20945430  0.92217945    -0.78200
C1572       C  0.65698419  0.23209771  0.94274394     0.82600
N1573       N  0.64629194  0.22413113  0.97784458    -0.78100
C1574       C  0.64068277  0.19409066  0.99272884     0.82700
N1575       N  0.64591954  0.17210132  0.97223461    -0.79800
C1576       C  0.55413781  0.19084459  0.74937111     0.80100
N1577       N  0.52599684  0.16973726  0.76925172    -0.78200
C1578       C  0.52338007  0.17776420  0.80452289     0.82600
N1579       N  0.54843699  0.20714922  0.81944995    -0.78100
C1580       C  0.57634410  0.22841226  0.79942880     0.82700
N1581       N  0.57932372  0.21995163  0.76479341    -0.79800
O1582       O  0.85828283  0.10383527  0.89045826    -0.78600
C1583       C  0.84672428  0.00680869  0.91457990     0.82500
O1584       O  0.96599161  0.12069846  0.94489668    -0.79700
O1585       O  0.93515734  0.02424305  0.85239590    -0.81200
O1586       O  0.88636141  0.09030408  0.79268598    -0.81000
O1587       O  0.89855363  0.14554903  0.85703605    -0.79600
Zn1588     Zn  0.88601808  0.08311236  0.90779567     1.55700
O1589       O  0.87898891  0.03768371  0.79644388    -0.81000
Cd1590     Cd  0.91693992  0.11615166  0.83532646     1.59700
Cd1591     Cd  0.96375522  0.10347370  0.89067159     1.59600
O1592       O  0.96438820  0.14545223  0.81349979    -0.81000
O1593       O  0.91635415  0.08398759  0.87147546    -1.91500
Cd1594     Cd  0.89691369  0.03747665  0.85001170     1.59900
O1595       O  0.99796444  0.14353221  0.85692237    -0.80900
O1596       O  0.85730495  0.00226051  0.88386719    -0.79600
C1597       C  0.94238265  0.12219308  0.96261697     0.82900
C1598       C  0.87048857  0.13255717  0.87439911     0.82600
O1599       O  0.85642580  0.03637638  0.92719692    -0.78600
C1600       C  0.87561503  0.06068795  0.77953124     0.83400
O1601       O  0.91250529  0.11015370  0.94981939    -0.78600
C1602       C  0.99372805  0.15454015  0.82635398     0.83500
C1603       C  0.96416035  0.03729665  0.86848676     0.83900
O1604       O  0.97728544  0.06584736  0.88546489    -0.81100
C1605       C  0.52382784  0.34686578  0.93658754     0.80100
N1606       N  0.52620999  0.35650711  0.97213825    -0.78200
C1607       C  0.55330288  0.36139620  0.49264473     0.82600
N1608       N  0.57765195  0.35576173  0.97766251    -0.78100
C1609       C  0.57493104  0.34538053  0.94244258     0.82700
N1610       N  0.54822095  0.34155341  0.92190514    -0.79800
O1611       O  0.63356505  0.26574816  0.81708116    -0.78600
C1612       C  0.74032854  0.34343076  0.81467044     0.82500
O1613       O  0.65976818  0.28674530  0.94360973    -0.79700
O1614       O  0.73644720  0.40373654  0.89107980    -0.81200
O1615       O  0.63272571  0.36821846  0.81466876    -0.81000
O1616       O  0.59465080  0.28101503  0.82834162    -0.79600
Zn1617     Zn  0.67246325  0.29711006  0.85091417     1.55700
O1618       O  0.68628428  0.40699389  0.82901757    -0.81000
Cd1619     Cd  0.62453846  0.32882982  0.84996917     1.59700
Cd1620     Cd  0.66702618  0.33441748  0.92513521     1.59600
O1621       O  0.59736944  0.33371859  0.89097116    -0.81000
O1622       O  0.66712940  0.33366825  0.86999943    -1.91500
Cd1623     Cd  0.70431887  0.37681028  0.85006672     1.59900
O1624       O  0.62644852  0.34190305  0.94284945    -0.80900
O1625       O  0.73530705  0.36874919  0.81464653    -0.79600
C1626       C  0.66210458  0.26375744  0.92548902     0.82900
C1627       C  0.60306066  0.26022074  0.81539142     0.82600
O1628       O  0.71924922  0.31488400  0.82906142    -0.78600
C1629       C  0.65761784  0.39887014  0.81472268     0.83400
O1630       O  0.66821052  0.26660513  0.89144867    -0.78600
C1631       C  0.60113843  0.33992108  0.92496878     0.83500
C1632       C  0.73865138  0.40007664  0.92514777     0.83900
O1633       O  0.71505139  0.37494784  0.94307741    -0.81100
O1634       O  0.89800442  0.25624291  0.89067352    -0.78600
C1635       C  0.99456745  0.34148503  0.91453863     0.82500
O1636       O  0.88070683  0.34699905  0.94511815    -0.79700
O1637       O  0.97764816  0.41284109  0.85264724    -0.81200
O1638       O  0.91082222  0.29819575  0.79254347    -0.81000
O1639       O  0.85629304  0.25450926  0.85720369    -0.79600
Zn1640     Zn  0.91835275  0.30474606  0.90798753     1.55700
O1641       O  0.96362647  0.34317672  0.79638986    -0.81000
Cd1642     Cd  0.88515329  0.30248251  0.83561425     1.59700
Cd1643     Cd  0.89804535  0.36228988  0.89080938     1.59600
O1644       O  0.85521886  0.31998396  0.81433361    -0.81000
O1645       O  0.91742146  0.33423612  0.87161138    -1.91500
Cd1646     Cd  0.96398659  0.36118617  0.85007869     1.59900
O1647       O  0.85792048  0.35646012  0.85700860    -0.80900
O1648       O  0.99911763  0.35644451  0.88368816    -0.79600
C1649       C  0.87906070  0.32173677  0.96276343     0.82900
C1650       C  0.86938491  0.23955823  0.87455187     0.82600
O1651       O  0.96501662  0.32194772  0.92740352    -0.78600
C1652       C  0.94046530  0.31694570  0.77938804     0.83400
O1653       O  0.89111783  0.30393399  0.94994028    -0.78600
C1654       C  0.84638961  0.34053991  0.82684484     0.83500
C1655       C  0.96472776  0.42891100  0.86870222     0.83900
O1656       O  0.93608861  0.41353530  0.88556137    -0.81100
C1657       C  0.82303558  0.34659372  0.80480817     0.80100
N1658       N  0.83129762  0.35732491  0.76955970    -0.78200
C1659       C  0.81010502  0.36382852  0.74925978     0.82600
N1660       N  0.78066128  0.35930266  0.76426975    -0.78100
C1661       C  0.77185166  0.34763776  0.79882704     0.82700
N1662       N  0.79326036  0.34160637  0.81932230    -0.79800
C1663       C  0.82295807  0.47749435  0.93669299     0.80100
N1664       N  0.79319779  0.45306776  0.92209040    -0.78200
C1665       C  0.77035941  0.42625393  0.94261433     0.82600
N1666       N  0.77811917  0.42343070  0.97776697    -0.78100
C1667       C  0.80818997  0.44782094  0.49267336     0.82700
N1668       N  0.83035384  0.47504485  0.97218065    -0.79800
C1669       C  0.63682611  0.44783092  0.74921572     0.80100
N1670       N  0.64109943  0.42281961  0.76441927    -0.78200
C1671       C  0.65292084  0.42587936  0.79889615     0.82600
N1672       N  0.65945427  0.45366712  0.81907914    -0.78100
C1673       C  0.65472068  0.47855129  0.80438335     0.82700
N1674       N  0.64378732  0.47586621  0.76921444    -0.79800
C1675       C  0.85171500  0.15083357  0.87550865     0.80100
N1676       N  0.81712922  0.13322342  0.87534264    -0.78200
C1677       C  0.79960200  0.15024769  0.87542790     0.82600
N1678       N  0.81664515  0.18484239  0.87549372    -0.78100
C1679       C  0.85121387  0.20245379  0.87564583     0.82700
N1680       N  0.86877190  0.18546039  0.87555369    -0.79800
C1681       C  0.96575937  0.98395715  0.11850049     0.80100
N1682       N  0.98345122  0.51873037  0.11852869    -0.78200
C1683       C  0.51819657  0.53610053  0.11844961     0.82600
N1684       N  0.53523825  0.51843221  0.11840340    -0.78100
C1685       C  0.51778610  0.98365301  0.11835255     0.82700
N1686       N  0.98305525  0.96654712  0.11843729    -0.79000
C1687       C  0.64973329  0.85190590  0.11998863     0.80100
N1688       N  0.63268404  0.81729103  0.11987827    -0.78200
C1689       C  0.65021482  0.80029463  0.11978031     0.82600
N1690       N  0.68478110  0.81787962  0.11984494    -0.78100
C1691       C  0.70184080  0.85247936  0.11994776     0.82700
N1692       N  0.68432601  0.86952556  0.12003845    -0.79800
C1693       C  0.84533105  0.82375557  0.05473394     0.80100
N1694       N  0.84021448  0.79374205  0.06881705    -0.78200
C1695       C  0.84672085  0.77271330  0.04816365     0.82600
N1696       N  0.85912355  0.78223687  0.01392815    -0.78100
C1697       C  0.86378493  0.81191934  0.49934858     0.82700
N1698       N  0.85672506  0.83266566  0.01977527    -0.79800
O1699       O  0.64374170  0.96424624  0.06403976    -0.78600
C1700       C  0.63081717  0.87003392  0.12030838     0.82500
O1701       O  0.53544969  0.87891206  0.04635872    -0.79700
O1702       O  0.53497089  0.85602966  0.17782733    -0.81200
O1703       O  0.61939830  0.96512111  0.19483932    -0.81000
O1704       O  0.64298836  0.99853280  0.10729469    -0.79600
Zn1705     Zn  0.61446801  0.91757282  0.08418077     1.55700
O1706       O  0.61135024  0.91234748  0.19954507    -0.81000
Cd1707     Cd  0.60266678  0.96397766  0.14044490     1.59700
Cd1708     Cd  0.53634643  0.89738525  0.09980572     1.59600
O1709       O  0.56503620  0.97765385  0.13557070    -0.81000
O1710       O  0.58349210  0.91717914  0.11961919    -1.91500
Cd1711     Cd  0.58246246  0.88565320  0.15664700     1.59900
O1712       O  0.52321155  0.93563865  0.10259366    -0.80900
O1713       O  0.60243855  0.85692223  0.13707555    -0.79600
C1714       C  0.55898903  0.87666324  0.02927971     0.82900
C1715       C  0.65355887  0.99386002  0.07667148     0.82600
O1716       O  0.64294906  0.89849787  0.10373522    -0.78600
C1717       C  0.62206643  0.94204353  0.21240431     0.83400
O1718       O  0.58881700  0.88876729  0.04229288    -0.78600
C1719       C  0.53638711  0.96460533  0.11881020     0.83500
C1720       C  0.50568351  0.84705011  0.16498085     0.83900
O1721       O  0.50156133  0.85804687  0.13431347    -0.81100
C1722       C  0.68913045  0.55399075  0.49930383     0.80100
N1723       N  0.66831255  0.52586698  0.01940309    -0.78200
C1724       C  0.67684238  0.52326352  0.05446231     0.82600
N1725       N  0.70648573  0.54831880  0.06895021    -0.78100
C1726       C  0.72752479  0.57618937  0.04867893     0.82700
N1727       N  0.71848613  0.57917635  0.01428271    -0.79800
C1728       C  0.97612423  0.82334773  0.18670924     0.80100
N1729       N  0.95178147  0.79376650  0.17171259    -0.78200
C1730       C  0.92492340  0.77069692  0.19195362     0.82600
N1731       N  0.92202148  0.77798975  0.22725559    -0.78100
C1732       C  0.94632694  0.80787921  0.24257824     0.82700
N1733       N  0.97358854  0.83032637  0.22233011    -0.79800
O1734       O  0.81391684  0.71970016  0.07789582    -0.78600
C1735       C  0.75946836  0.60309018  0.06430934     0.82500
O1736       O  0.78607156  0.66018151  0.19240206    -0.79700
O1737       O  0.83326600  0.59805763  0.14014994    -0.81200
O1738       O  0.90640050  0.68706221  0.07799634    -0.81000
O1739       O  0.86780996  0.73600296  0.06356027    -0.79600
Zn1740     Zn  0.79617833  0.67271627  0.09964303     1.55700
O1741       O  0.86795379  0.63329655  0.06381980    -0.81000
Cd1742     Cd  0.87598846  0.70495804  0.09889744     1.59700
Cd1743     Cd  0.83356204  0.66758650  0.17380460     1.59600
O1744       O  0.90271573  0.73708294  0.14010420    -0.81000
O1745       O  0.83287154  0.66758317  0.11867349    -1.91500
Cd1746     Cd  0.82828820  0.62497476  0.09882106     1.59900
O1747       O  0.87375919  0.71547324  0.19194532    -0.80900
O1748       O  0.78041504  0.59483988  0.07719267    -0.79600
C1749       C  0.76294105  0.66228165  0.17436081     0.82900
C1750       C  0.84247034  0.74097228  0.06364749     0.82600
O1751       O  0.76490410  0.63361005  0.06588214    -0.78600
C1752       C  0.89852380  0.65834075  0.06390762     0.83400
O1753       O  0.76559920  0.66825728  0.14028861    -0.78600
C1754       C  0.89890979  0.73914554  0.17417505     0.83500
C1755       C  0.83940499  0.60202051  0.17417001     0.83900
O1756       O  0.84122838  0.62734649  0.19184592    -0.81100
O1757       O  0.81948022  0.85671674  0.06478495    -0.78600
C1758       C  0.73892355  0.87123453  0.12024327     0.82500
O1759       O  0.84343765  0.96583471  0.04647653    -0.79700
O1760       O  0.82127777  0.96620081  0.17826634    -0.81200
O1761       O  0.84521496  0.88167586  0.19506395    -0.81000
O1762       O  0.85525116  0.85807579  0.10745541    -0.79600
Zn1763     Zn  0.80274284  0.88661361  0.08444535     1.55700
O1764       O  0.80026769  0.88929990  0.19945531    -0.81000
Cd1765     Cd  0.86108735  0.89851275  0.14061641     1.59700
Cd1766     Cd  0.86084226  0.96499243  0.10000149     1.59600
O1767       O  0.91246452  0.93645612  0.13569709    -0.81000
O1768       O  0.83351014  0.91769024  0.11976357    -1.91500
Cd1769     Cd  0.80307966  0.91875828  0.15681010     1.59900
O1770       O  0.91227126  0.97839005  0.10291677    -0.80900
O1771       O  0.75449231  0.89957651  0.13705532    -0.79600
C1772       C  0.81778888  0.94215058  0.02929443     0.82900
C1773       C  0.83947079  0.84708293  0.07714915     0.82600
O1774       O  0.75499456  0.85881428  0.10380378    -0.78600
C1775       C  0.81925851  0.87870320  0.21244632     0.83400
O1776       O  0.80013402  0.91224454  0.04226295    -0.78600
C1777       C  0.92807629  0.96522700  0.11903978     0.83500
C1778       C  0.84118320  0.99555671  0.16515590     0.83900
O1779       O  0.85603445  0.99973945  0.13430094    -0.81100
C1780       C  0.86065606  0.55472087  0.24273954     0.80100
N1781       N  0.85613325  0.52760285  0.22248946    -0.78200
C1782       C  0.84681876  0.52507998  0.18680517     0.82600
N1783       N  0.84146020  0.54931193  0.17174197    -0.78100
C1784       C  0.84496617  0.57604039  0.19198755     0.82700
N1785       N  0.85498774  0.57892014  0.22735399    -0.79800
C1786       C  0.67891136  0.65571736  0.18659539     0.80100
N1787       N  0.67191915  0.64628655  0.22226306    -0.78200
C1788       C  0.69430611  0.64151146  0.24257283     0.82600
N1789       N  0.72409391  0.64701270  0.22723756    -0.78100
C1790       C  0.73144833  0.65710086  0.19191265     0.82700
N1791       N  0.70845690  0.66088398  0.17156741    -0.79800
O1792       O  0.53754044  0.68190130  0.06399898    -0.78600
C1793       C  0.63201504  0.76319845  0.12003435     0.82500
O1794       O  0.62298810  0.65859374  0.04645152    -0.79700
O1795       O  0.64594865  0.68153669  0.17769761    -0.81200
O1796       O  0.53670236  0.65636560  0.19480211    -0.81000
O1797       O  0.50320282  0.64673661  0.10723042    -0.79600
Zn1798     Zn  0.58421553  0.69911993  0.08398802     1.55700
O1799       O  0.58946460  0.70117102  0.19952330    -0.81000
Cd1800     Cd  0.53772923  0.64086068  0.14031663     1.59700
Cd1801     Cd  0.60450116  0.64119540  0.09994922     1.59600
O1802       O  0.52407708  0.58944688  0.13539407    -0.81000
O1803       O  0.58458048  0.66854207  0.11954813    -1.91500
Cd1804     Cd  0.61610473  0.69910516  0.15656765     1.59900
O1805       O  0.56633105  0.58968202  0.10293979    -0.80900
O1806       O  0.64489439  0.74787325  0.13703839    -0.79600
C1807       C  0.62515256  0.68432229  0.02925267     0.82900
C1808       C  0.50791476  0.66210350  0.07664874     0.82600
O1809       O  0.60369146  0.74689615  0.10326853    -0.78600
C1810       C  0.55980942  0.68208369  0.21241695     0.83400
O1811       O  0.61287192  0.70193355  0.04210923    -0.78600
C1812       C  0.53725462  0.57383374  0.11891725     0.83500
C1813       C  0.65509693  0.66136159  0.16485455     0.83900
O1814       O  0.64402941  0.64607260  0.13428406    -0.81100
C1815       C  0.97857047  0.65601124  0.05438748     0.80100
N1816       N  0.95354587  0.66068738  0.06875403    -0.78200
C1817       C  0.92573395  0.65375637  0.04839598     0.82600
N1818       N  0.92275689  0.64148693  0.01411843    -0.78100
C1819       C  0.94789408  0.63725284  0.49926343     0.82700
N1820       N  0.97595873  0.64467796  0.01940710    -0.79800
C1821       C  0.98350119  0.96663101  0.36785679     0.80100
N1822       N  0.96611359  0.98394444  0.36781142    -0.78200
C1823       C  0.98319309  0.51869954  0.36769502     0.82600
N1824       N  0.51794470  0.53618585  0.36774637    -0.78100
C1825       C  0.53560008  0.51913395  0.36777256     0.82700
N1826       N  0.51824013  0.98434321  0.36788202    -0.79800
O1827       O  0.74610260  0.64356281  0.39057821    -0.78600
C1828       C  0.66127733  0.65585529  0.41459896     0.82500
O1829       O  0.65463792  0.53588664  0.44478584    -0.79700
O1830       O  0.58940630  0.56739520  0.35281185    -0.81200
O1831       O  0.70391469  0.61552383  0.29240451    -0.81000
O1832       O  0.74738043  0.60359707  0.35656376    -0.79600
Zn1833     Zn  0.69756492  0.61597557  0.40775432     1.55700
O1834       O  0.65900395  0.62330946  0.29643332    -0.81000
Cd1835     Cd  0.69945347  0.58507438  0.33511504     1.59700
Cd1836     Cd  0.63980564  0.53813025  0.39044398     1.59600
O1837       O  0.68137166  0.53756559  0.31345190    -0.81000
O1838       O  0.66796815  0.58568759  0.37137106    -1.91500
Cd1839     Cd  0.64110347  0.60546268  0.35014177     1.59900
O1840       O  0.64564397  0.50384596  0.35675085    -0.80900
O1841       O  0.64609778  0.64535324  0.38390032    -0.79600
C1842       C  0.67977920  0.55948277  0.46255795     0.82900
C1843       C  0.76253591  0.63147973  0.37425580     0.82600
O1844       O  0.68087499  0.64587016  0.42722830    -0.78600
C1845       C  0.68520777  0.62647845  0.27936580     0.83400
O1846       O  0.69781942  0.58938107  0.44975448    -0.78600
C1847       C  0.66106270  0.50815292  0.32627009     0.83500
C1848       C  0.57330649  0.53817828  0.36856906     0.83900
O1849       O  0.58864473  0.52477373  0.38513486    -0.81100
C1850       C  0.65592161  0.67968302  0.43677898     0.80100
N1851       N  0.66116883  0.70945444  0.42217940    -0.78200
C1852       C  0.65698420  0.73209752  0.44274377     0.82600
N1853       N  0.64629192  0.72413114  0.47784472    -0.78100
C1854       C  0.64068291  0.69409073  0.49272816     0.82700
N1855       N  0.64591941  0.67210142  0.47223505    -0.79800
C1856       C  0.55413803  0.69084456  0.24937044     0.80100
N1857       N  0.52599666  0.66973717  0.26925200    -0.78200
C1858       C  0.52338026  0.67776432  0.30452307     0.82600
N1859       N  0.54843711  0.70714919  0.31944964    -0.78100
C1860       C  0.57634390  0.72841236  0.29942945     0.82700
N1861       N  0.57932388  0.71995174  0.26479341    -0.79800
O1862       O  0.85828308  0.60383534  0.39045810    -0.78600
C1863       C  0.84672406  0.50680821  0.41458021     0.82500
O1864       O  0.96599151  0.62069865  0.44489702    -0.79700
O1865       O  0.93515718  0.52424298  0.35239573    -0.81200
O1866       O  0.88636144  0.59030400  0.29268612    -0.81000
O1867       O  0.89855389  0.64554905  0.35703584    -0.79600
Zn1868     Zn  0.88601804  0.58311234  0.40779564     1.55700
O1869       O  0.87898900  0.53768381  0.29644409    -0.81000
Cd1870     Cd  0.91693991  0.61615165  0.33532640     1.59700
Cd1871     Cd  0.96375517  0.60347367  0.39067151     1.59600
O1872       O  0.96438833  0.64545223  0.31349979    -0.81000
O1873       O  0.91635410  0.58398755  0.37147539    -1.91500
Cd1874     Cd  0.89691367  0.53747659  0.35001161     1.59900
O1875       O  0.99796445  0.64353215  0.35692240    -0.80900
O1876       O  0.85730503  0.50226073  0.38386727    -0.79600
C1877       C  0.94238295  0.62219292  0.46261628     0.82900
C1878       C  0.87048813  0.63255735  0.37439940     0.82600
O1879       O  0.85642587  0.53637648  0.42719669    -0.78600
C1880       C  0.87561476  0.56068792  0.27953067     0.83400
O1881       O  0.91250519  0.61015374  0.44981965    -0.78600
C1882       C  0.99372772  0.65454001  0.32635370     0.83500
C1883       C  0.96416065  0.53729667  0.36848693     0.83900
O1884       O  0.97728536  0.56584720  0.38546475    -0.81100
C1885       C  0.52382790  0.84686573  0.43658792     0.80100
N1886       N  0.52620979  0.85650708  0.47213810    -0.78200
C1887       C  0.55330338  0.86139620  0.99264499     0.82600
N1888       N  0.57765178  0.85576185  0.47766278    -0.78100
C1889       C  0.57493117  0.84538043  0.44244232     0.82700
N1890       N  0.54822086  0.84155337  0.42190505    -0.79800
O1891       O  0.63356509  0.76574830  0.31708116    -0.78600
C1892       C  0.74032826  0.84342992  0.31467056     0.82500
O1893       O  0.65976820  0.78674559  0.44360993    -0.79700
O1894       O  0.73644714  0.90373657  0.39107927    -0.81200
O1895       O  0.63272577  0.86821846  0.31466883    -0.81000
O1896       O  0.59465077  0.78101502  0.32834165    -0.79600
Zn1897     Zn  0.67246321  0.79711006  0.35091412     1.55700
O1898       O  0.68628432  0.90699382  0.32901756    -0.81000
Cd1899     Cd  0.62453846  0.82882981  0.34996915     1.59700
Cd1900     Cd  0.66702616  0.83441741  0.42513534     1.59600
O1901       O  0.59736939  0.83371854  0.39097106    -0.81000
O1902       O  0.66712940  0.83366825  0.36999943    -1.91500
Cd1903     Cd  0.70431887  0.87681024  0.35006670     1.59900
O1904       O  0.62644849  0.84190299  0.44284937    -0.80900
O1905       O  0.73530706  0.86874962  0.31464646    -0.79600
C1906       C  0.66210463  0.76375716  0.42548825     0.82900
C1907       C  0.60306064  0.76022045  0.31539123     0.82600
O1908       O  0.71924946  0.81488446  0.32906119    -0.78600
C1909       C  0.65761761  0.89887013  0.31472246     0.83400
O1910       O  0.66821042  0.76660510  0.39144927    -0.78600
C1911       C  0.60113837  0.83992109  0.42496903     0.83500
C1912       C  0.73865139  0.90007651  0.42514883     0.83900
O1913       O  0.71505154  0.87494807  0.44307705    -0.81100
O1914       O  0.89800430  0.75624286  0.39067342    -0.78600
C1915       C  0.99456747  0.84148542  0.41453820     0.82500
O1916       O  0.88070691  0.84699927  0.44511771    -0.79700
O1917       O  0.97764813  0.91284107  0.35264720    -0.81200
O1918       O  0.91082227  0.79819577  0.29254343    -0.81000
O1919       O  0.85629296  0.75450937  0.35720356    -0.79600
Zn1920     Zn  0.91835279  0.80474617  0.40798750     1.55700
O1921       O  0.96362655  0.84317676  0.29638989    -0.81000
Cd1922     Cd  0.88515327  0.80248249  0.33561419     1.59700
Cd1923     Cd  0.89804535  0.86228988  0.39080934     1.59600
O1924       O  0.85521877  0.81998375  0.31433329    -0.81000
O1925       O  0.91742144  0.83423611  0.37161132    -1.91500
Cd1926     Cd  0.96398656  0.86118616  0.35007862     1.59900
O1927       O  0.85792030  0.85645991  0.35700812    -0.80900
O1928       O  0.99911766  0.85644433  0.38368842    -0.79600
C1929       C  0.87906031  0.82173631  0.46276467     0.82900
C1930       C  0.86938513  0.73955808  0.37455197     0.82600
O1931       O  0.96501647  0.82194759  0.42740373    -0.78600
C1932       C  0.94046501  0.81694536  0.27938793     0.83400
O1933       O  0.89111793  0.80393403  0.44993995    -0.78600
C1934       C  0.84638983  0.84054017  0.32684574     0.83500
C1935       C  0.96472810  0.92891121  0.36870189     0.83900
O1936       O  0.93608842  0.91353520  0.38556154    -0.81100
C1937       C  0.82303530  0.84659359  0.30480804     0.80100
N1938       N  0.83129763  0.85732499  0.26955934    -0.78200
C1939       C  0.81010486  0.86382829  0.24926016     0.82600
N1940       N  0.78066146  0.85930287  0.26426926    -0.78100
C1941       C  0.77185171  0.84763773  0.29882749     0.82700
N1942       N  0.79326039  0.84160641  0.31932207    -0.79800
C1943       C  0.82295848  0.97749446  0.43669274     0.80100
N1944       N  0.79319813  0.95306823  0.42209024    -0.78200
C1945       C  0.77035899  0.92625345  0.44261447     0.82600
N1946       N  0.77811938  0.92343101  0.47776692    -0.78100
C1947       C  0.80819000  0.94782110  0.99267269     0.82700
N1948       N  0.83035371  0.97504491  0.47218028    -0.79800
C1949       C  0.63682608  0.94783079  0.24921565     0.80100
N1950       N  0.64109935  0.92281962  0.26441913    -0.78200
C1951       C  0.65292098  0.92587947  0.29889634     0.82600
N1952       N  0.65945427  0.95366700  0.31907924    -0.78100
C1953       C  0.65472045  0.97855125  0.30438292     0.82700
N1954       N  0.64378745  0.97586632  0.26921499    -0.79800
C1955       C  0.85171435  0.65083243  0.37550852     0.80100
N1956       N  0.81712966  0.63322365  0.37534255    -0.78200
C1957       C  0.79960209  0.65024794  0.37542786     0.82600
N1958       N  0.81664509  0.68484211  0.37549360    -0.78100
C1959       C  0.85121402  0.70245393  0.37564595     0.82700
N1960       N  0.86877224  0.68546123  0.37555366    -0.79800
C1961       C  0.96575948  0.98395742  0.61850068     0.80100
N1962       N  0.98345210  0.51873095  0.61852865    -0.78200
C1963       C  0.51819547  0.53609999  0.61844945     0.82600
N1964       N  0.53523875  0.51843245  0.61840332    -0.78100
C1965       C  0.51778616  0.98365337  0.61835266     0.82700
N1966       N  0.98305583  0.96654709  0.61843727    -0.79000
C1967       C  0.64973312  0.85190555  0.61998886     0.80100
N1968       N  0.63268412  0.81729114  0.61987826    -0.78200
C1969       C  0.65021405  0.80029407  0.61978015     0.82600
N1970       N  0.68478118  0.81787982  0.61984492    -0.78100
C1971       C  0.70184056  0.85247891  0.61994774     0.82700
N1972       N  0.68432586  0.86952563  0.62003851    -0.79800
C1973       C  0.84533140  0.82375631  0.55473384     0.80100
N1974       N  0.84021437  0.79374163  0.56881705    -0.78200
C1975       C  0.84672070  0.77271337  0.54816419     0.82600
N1976       N  0.85912357  0.78223740  0.51392776    -0.78100
C1977       C  0.86378459  0.81192043  0.99934971     0.82700
N1978       N  0.85672462  0.83266587  0.51977641    -0.79800
O1979       O  0.64374151  0.96424572  0.56403930    -0.78600
C1980       C  0.63081821  0.87003480  0.62030748     0.82500
O1981       O  0.53544969  0.87891203  0.54635850    -0.79700
O1982       O  0.53497097  0.85602988  0.67782718    -0.81200
O1983       O  0.61939845  0.96512102  0.69483942    -0.81000
O1984       O  0.64298830  0.99853262  0.60729420    -0.79600
Zn1985     Zn  0.61446793  0.91757278  0.58418078     1.55700
O1986       O  0.61135036  0.91234744  0.69954502    -0.81000
Cd1987     Cd  0.60266667  0.96397757  0.64044493     1.59700
Cd1988     Cd  0.53634642  0.89738520  0.59980577     1.59600
O1989       O  0.56503655  0.97765420  0.63557106    -0.81000
O1990       O  0.58349209  0.91717906  0.61961927    -1.91500
Cd1991     Cd  0.58246241  0.88565312  0.65664711     1.59900
O1992       O  0.52321165  0.93563879  0.60259373    -0.80900
O1993       O  0.60243798  0.85692195  0.63707597    -0.79600
C1994       C  0.55898921  0.87666326  0.52928034     0.82900
C1995       C  0.65355899  0.99386087  0.57667241     0.82600
O1996       O  0.64294856  0.89849720  0.60373569    -0.78600
C1997       C  0.62206616  0.94204396  0.71240414     0.83400
O1998       O  0.58881694  0.88876731  0.54229284    -0.78600
C1999       C  0.53638658  0.96460445  0.61880963     0.83500
C2000       C  0.50568306  0.84704942  0.66498183     0.83900
O2001       O  0.50156142  0.85804712  0.63431309    -0.81100
C2002       C  0.68913051  0.55399105  0.99930392     0.80100
N2003       N  0.66831232  0.52586660  0.51940321    -0.78200
C2004       C  0.67684340  0.52326455  0.55446117     0.82600
N2005       N  0.70648543  0.54831849  0.56895006    -0.78100
C2006       C  0.72752551  0.57618963  0.54867953     0.82700
N2007       N  0.71848584  0.57917612  0.51428231    -0.79800
C2008       C  0.97612471  0.82334828  0.68670887     0.80100
N2009       N  0.95178138  0.79376641  0.67171302    -0.78200
C2010       C  0.92492323  0.77069663  0.69195284     0.82600
N2011       N  0.92202183  0.77799002  0.72725563    -0.78100
C2012       C  0.94632657  0.80787923  0.74257875     0.82700
N2013       N  0.97358884  0.83032657  0.72232990    -0.79800
O2014       O  0.81391683  0.71970007  0.57789581    -0.78600
C2015       C  0.75946749  0.60308994  0.56430876     0.82500
O2016       O  0.78607151  0.66018158  0.69240187    -0.79700
O2017       O  0.83326585  0.59805735  0.64014979    -0.81200
O2018       O  0.90639994  0.68706170  0.57799631    -0.81000
O2019       O  0.86780999  0.73600286  0.56356036    -0.79600
Zn2020     Zn  0.79617822  0.67271624  0.59964292     1.55700
O2021       O  0.86795287  0.63329590  0.56381996    -0.81000
Cd2022     Cd  0.87598844  0.70495811  0.59889749     1.59700
Cd2023     Cd  0.83356209  0.66758648  0.67380463     1.59600
O2024       O  0.90271589  0.73708316  0.64010376    -0.81000
O2025       O  0.83287153  0.66758316  0.61867350    -1.91500
Cd2026     Cd  0.82828820  0.62497484  0.59882108     1.59900
O2027       O  0.87375949  0.71547343  0.69194515    -0.80900
O2028       O  0.78041536  0.59483998  0.57719277    -0.79600
C2029       C  0.76294099  0.66228136  0.67436120     0.82900
C2030       C  0.84247003  0.74097224  0.56364718     0.82600
O2031       O  0.76490434  0.63361000  0.56588213    -0.78600
C2032       C  0.89852544  0.65834220  0.56390783     0.83400
O2033       O  0.76559921  0.66825732  0.64028833    -0.78600
C2034       C  0.89890931  0.73914523  0.67417634     0.83500
C2035       C  0.83940510  0.60202127  0.67417046     0.83900
O2036       O  0.84122826  0.62734613  0.69184573    -0.81100
O2037       O  0.81948044  0.85671660  0.56478542    -0.78600
C2038       C  0.73892402  0.87123459  0.62024315     0.82500
O2039       O  0.84343774  0.96583463  0.54647688    -0.79700
O2040       O  0.82127777  0.96620055  0.67826611    -0.81200
O2041       O  0.84521537  0.88167601  0.69506382    -0.81000
O2042       O  0.85525175  0.85807617  0.60745633    -0.79600
Zn2043     Zn  0.80274277  0.88661353  0.58444537     1.55700
O2044       O  0.80026766  0.88929976  0.69945540    -0.81000
Cd2045     Cd  0.86108733  0.89851280  0.64061645     1.59700
Cd2046     Cd  0.86084227  0.96499239  0.60000150     1.59600
O2047       O  0.91246439  0.93645557  0.63569762    -0.81000
O2048       O  0.83351007  0.91769023  0.61976357    -1.91500
Cd2049     Cd  0.80307957  0.91875821  0.65681018     1.59900
O2050       O  0.91227163  0.97838980  0.60291716    -0.80900
O2051       O  0.75449209  0.89957638  0.63705538    -0.79600
C2052       C  0.81778827  0.94215023  0.52929379     0.82900
C2053       C  0.83946976  0.84708242  0.57714759     0.82600
O2054       O  0.75499421  0.85881426  0.60380397    -0.78600
C2055       C  0.81925779  0.87870313  0.71244647     0.83400
O2056       O  0.80013431  0.91224482  0.54226316    -0.78600
C2057       C  0.92807608  0.96522799  0.61903899     0.83500
C2058       C  0.84118329  0.99555712  0.66515630     0.83900
O2059       O  0.85603431  0.99973909  0.63430097    -0.81100
C2060       C  0.86065598  0.55472131  0.74273952     0.80100
N2061       N  0.85613321  0.52760276  0.72248926    -0.78200
C2062       C  0.84681900  0.52507991  0.68680524     0.82600
N2063       N  0.84146002  0.54931193  0.67174153    -0.78100
C2064       C  0.84496608  0.57604015  0.69198790     0.82700
N2065       N  0.85498775  0.57891974  0.72735384    -0.79800
C2066       C  0.67891139  0.65571736  0.68659531     0.80100
N2067       N  0.67191951  0.64628666  0.72226297    -0.78200
C2068       C  0.69430475  0.64151094  0.74257369     0.82600
N2069       N  0.72409466  0.64701290  0.72723728    -0.78100
C2070       C  0.73144805  0.65710093  0.69191211     0.82700
N2071       N  0.70845696  0.66088388  0.67156774    -0.79800
O2072       O  0.53753956  0.68190064  0.56399936    -0.78600
C2073       C  0.63201591  0.76319865  0.62003471     0.82500
O2074       O  0.62298816  0.65859397  0.54645133    -0.79700
O2075       O  0.64594874  0.68153645  0.67769751    -0.81200
O2076       O  0.53670283  0.65636602  0.69480258    -0.81000
O2077       O  0.50320232  0.64673596  0.60723128    -0.79600
Zn2078     Zn  0.58421559  0.69911983  0.58398803     1.55700
O2079       O  0.58946503  0.70117141  0.69952330    -0.81000
Cd2080     Cd  0.53772930  0.64086064  0.64031651     1.59700
Cd2081     Cd  0.60450121  0.64119544  0.59994912     1.59600
O2082       O  0.52407720  0.58944661  0.63539378    -0.81000
O2083       O  0.58458047  0.66854203  0.61954807    -1.91500
Cd2084     Cd  0.61610469  0.69910514  0.65656768     1.59900
O2085       O  0.56633084  0.58968181  0.60293974    -0.80900
O2086       O  0.64489404  0.74787317  0.63703827    -0.79600
C2087       C  0.62515262  0.68432120  0.52925315     0.82900
C2088       C  0.50791623  0.66210482  0.57664728     0.82600
O2089       O  0.60369131  0.74689605  0.60326836    -0.78600
C2090       C  0.55980827  0.68208253  0.71241610     0.83400
O2091       O  0.61287189  0.70193374  0.54210909    -0.78600
C2092       C  0.53725498  0.57383435  0.61891721     0.83500
C2093       C  0.65509656  0.66136158  0.66485456     0.83900
O2094       O  0.64402939  0.64607265  0.63428414    -0.81100
C2095       C  0.97857165  0.65601092  0.55438744     0.80100
N2096       N  0.95354485  0.66068753  0.56875416    -0.78200
C2097       C  0.92573414  0.65375616  0.54839644     0.82600
N2098       N  0.92275687  0.64148697  0.51411803    -0.78100
C2099       C  0.94789416  0.63725300  0.99926345     0.82700
N2100       N  0.97595823  0.64467825  0.51940738    -0.79800
C2101       C  0.98350184  0.96663129  0.86785673     0.80100
N2102       N  0.96611328  0.98394424  0.86781143    -0.78200
C2103       C  0.98319274  0.51869867  0.86769500     0.82600
N2104       N  0.51794425  0.53618596  0.86774631    -0.78100
C2105       C  0.53560143  0.51913416  0.86777247     0.82700
N2106       N  0.51824022  0.98434287  0.86788197    -0.79800
O2107       O  0.74610231  0.64356313  0.89057860    -0.78600
C2108       C  0.66127709  0.65585528  0.91459897     0.82500
O2109       O  0.65463812  0.53588693  0.94478583    -0.79700
O2110       O  0.58940661  0.56739521  0.85281169    -0.81200
O2111       O  0.70391458  0.61552369  0.79240489    -0.81000
O2112       O  0.74738049  0.60359733  0.85656411    -0.79600
Zn2113     Zn  0.69756499  0.61597562  0.90775438     1.55700
O2114       O  0.65900389  0.62330923  0.79643367    -0.81000
Cd2115     Cd  0.69945362  0.58507442  0.83511511     1.59700
Cd2116     Cd  0.63980570  0.53813018  0.89044409     1.59600
O2117       O  0.68137197  0.53756584  0.81345159    -0.81000
O2118       O  0.66796824  0.58568763  0.87137111    -1.91500
Cd2119     Cd  0.64110352  0.60546260  0.85014184     1.59900
O2120       O  0.64564405  0.50384593  0.85675066    -0.80900
O2121       O  0.64609776  0.64535311  0.88390039    -0.79600
C2122       C  0.67977871  0.55948204  0.96255822     0.82900
C2123       C  0.76253632  0.63147915  0.87425532     0.82600
O2124       O  0.68087506  0.64587012  0.92722835    -0.78600
C2125       C  0.68520872  0.62647908  0.77936464     0.83400
O2126       O  0.69781962  0.58938142  0.94975449    -0.78600
C2127       C  0.66106222  0.50815251  0.82627087     0.83500
C2128       C  0.57330559  0.53817816  0.86856911     0.83900
O2129       O  0.58864495  0.52477367  0.88513480    -0.81100
C2130       C  0.65592144  0.67968288  0.93677923     0.80100
N2131       N  0.66116873  0.70945417  0.92217940    -0.78200
C2132       C  0.65698439  0.73209806  0.94274352     0.82600
N2133       N  0.64629191  0.72413115  0.97784468    -0.78100
C2134       C  0.64068269  0.69409000  0.99272886     0.82700
N2135       N  0.64591947  0.67210164  0.97223457    -0.79800
C2136       C  0.55413788  0.69084449  0.74937069     0.80100
N2137       N  0.52599685  0.66973733  0.76925188    -0.78200
C2138       C  0.52338034  0.67776431  0.80452257     0.82600
N2139       N  0.54843734  0.70714946  0.81944999    -0.78100
C2140       C  0.57634354  0.72841178  0.79942870     0.82700
N2141       N  0.57932418  0.71995210  0.76479375    -0.79800
O2142       O  0.85828278  0.60383520  0.89045836    -0.78600
C2143       C  0.84672414  0.50680795  0.91457955     0.82500
O2144       O  0.96599191  0.62069859  0.94489656    -0.79700
O2145       O  0.93515751  0.52424303  0.85239593    -0.81200
O2146       O  0.88636148  0.59030397  0.79268593    -0.81000
O2147       O  0.89855347  0.64554892  0.85703616    -0.79600
Zn2148     Zn  0.88601805  0.58311231  0.90779567     1.55700
O2149       O  0.87898890  0.53768365  0.79644393    -0.81000
Cd2150     Cd  0.91693992  0.61615157  0.83532650     1.59700
Cd2151     Cd  0.96375533  0.60347376  0.89067161     1.59600
O2152       O  0.96438887  0.64545243  0.81349999    -0.81000
O2153       O  0.91635416  0.58398762  0.87147547    -1.91500
Cd2154     Cd  0.89691366  0.53747668  0.85001173     1.59900
O2155       O  0.99796473  0.64353216  0.85692267    -0.80900
O2156       O  0.85730494  0.50226079  0.88386739    -0.79600
C2157       C  0.94238222  0.62219282  0.96261692     0.82900
C2158       C  0.87048905  0.63255746  0.87439887     0.82600
O2159       O  0.85642571  0.53637654  0.92719703    -0.78600
C2160       C  0.87561502  0.56068822  0.77953120     0.83400
O2161       O  0.91250557  0.61015372  0.94981957    -0.78600
C2162       C  0.99372710  0.65453990  0.82635358     0.83500
C2163       C  0.96416035  0.53729701  0.86848680     0.83900
O2164       O  0.97728558  0.56584738  0.88546492    -0.81100
C2165       C  0.52382802  0.84686561  0.93658714     0.80100
N2166       N  0.52621008  0.85650720  0.97213862    -0.78200
C2167       C  0.55330349  0.86139599  0.49264442     0.82600
N2168       N  0.57765195  0.85576157  0.97766216    -0.78100
C2169       C  0.57493071  0.84538056  0.94244323     0.82700
N2170       N  0.54822054  0.84155335  0.92190500    -0.79800
O2171       O  0.63356526  0.76574835  0.81708117    -0.78600
C2172       C  0.74032907  0.84343116  0.81467015     0.82500
O2173       O  0.65976840  0.78674542  0.94360954    -0.79700
O2174       O  0.73644712  0.90373657  0.89107962    -0.81200
O2175       O  0.63272550  0.86821825  0.81466880    -0.81000
O2176       O  0.59465069  0.78101510  0.82834170    -0.79600
Zn2177     Zn  0.67246322  0.79711012  0.85091416     1.55700
O2178       O  0.68628406  0.90699378  0.82901752    -0.81000
Cd2179     Cd  0.62453838  0.82882974  0.84996918     1.59700
Cd2180     Cd  0.66702627  0.83441752  0.92513520     1.59600
O2181       O  0.59736907  0.83371837  0.89097117    -0.81000
O2182       O  0.66712942  0.83366825  0.86999943    -1.91500
Cd2183     Cd  0.70431884  0.87681038  0.85006675     1.59900
O2184       O  0.62644800  0.84190295  0.94284931    -0.80900
O2185       O  0.73530702  0.86874914  0.81464667    -0.79600
C2186       C  0.66210425  0.76375706  0.92548960     0.82900
C2187       C  0.60306080  0.76022050  0.81539132     0.82600
O2188       O  0.71924896  0.81488390  0.82906155    -0.78600
C2189       C  0.65761809  0.89887040  0.81472286     0.83400
O2190       O  0.66821069  0.76660529  0.89144839    -0.78600
C2191       C  0.60113954  0.83992120  0.92496880     0.83500
C2192       C  0.73865176  0.90007711  0.92514815     0.83900
O2193       O  0.71505136  0.87494764  0.94307738    -0.81100
O2194       O  0.89800443  0.75624283  0.89067355    -0.78600
C2195       C  0.99456884  0.84148575  0.91453833     0.82500
O2196       O  0.88070694  0.84699910  0.94511816    -0.79700
O2197       O  0.97764828  0.91284094  0.85264715    -0.81200
O2198       O  0.91082248  0.79819607  0.79254352    -0.81000
O2199       O  0.85629305  0.75450917  0.85720376    -0.79600
Zn2200     Zn  0.91835282  0.80474611  0.90798757     1.55700
O2201       O  0.96362680  0.84317721  0.79639008    -0.81000
Cd2202     Cd  0.88515339  0.80248256  0.83561426     1.59700
Cd2203     Cd  0.89804535  0.86228995  0.89080939     1.59600
O2204       O  0.85521877  0.81998417  0.81433359    -0.81000
O2205       O  0.91742147  0.83423617  0.87161139    -1.91500
Cd2206     Cd  0.96398652  0.86118611  0.85007867     1.59900
O2207       O  0.85792034  0.85646022  0.85700853    -0.80900
O2208       O  0.99911737  0.85644422  0.88368837    -0.79600
C2209       C  0.87906054  0.82173667  0.96276374     0.82900
C2210       C  0.86938493  0.73955864  0.87455176     0.82600
O2211       O  0.96501593  0.82194730  0.92740380    -0.78600
C2212       C  0.94046456  0.81694460  0.77938760     0.83400
O2213       O  0.89111806  0.80393385  0.94994010    -0.78600
C2214       C  0.84639017  0.84053978  0.82684516     0.83500
C2215       C  0.96472733  0.92891118  0.86870253     0.83900
O2216       O  0.93608882  0.91353529  0.88556123    -0.81100
C2217       C  0.82303514  0.84659387  0.80480785     0.80100
N2218       N  0.83129752  0.85732488  0.76955987    -0.78200
C2219       C  0.81010544  0.86382857  0.74925983     0.82600
N2220       N  0.78066120  0.85930271  0.76426966    -0.78100
C2221       C  0.77185133  0.84763788  0.79882712     0.82700
N2222       N  0.79326073  0.84160630  0.81932242    -0.79800
C2223       C  0.82295799  0.97749390  0.93669304     0.80100
N2224       N  0.79319795  0.95306806  0.92209035    -0.78200
C2225       C  0.77035899  0.92625346  0.94261383     0.82600
N2226       N  0.77811957  0.92343099  0.97776725    -0.78100
C2227       C  0.80819015  0.94782110  0.49267324     0.82700
N2228       N  0.83035381  0.97504495  0.97218053    -0.79800
C2229       C  0.63682643  0.94783040  0.74921587     0.80100
N2230       N  0.64109930  0.92281977  0.76441910    -0.78200
C2231       C  0.65292073  0.92587951  0.79889623     0.82600
N2232       N  0.65945422  0.95366674  0.81907938    -0.78100
C2233       C  0.65472028  0.97855108  0.80438261     0.82700
N2234       N  0.64378755  0.97586665  0.76921508    -0.79800
C2235       C  0.85171519  0.65083371  0.87550864     0.80100
N2236       N  0.81712865  0.63322340  0.87534261    -0.78200
C2237       C  0.79960242  0.65024735  0.87542795     0.82600
N2238       N  0.81664562  0.68484309  0.87549371    -0.78100
C2239       C  0.85121374  0.70245345  0.87564583     0.82700
N2240       N  0.86877191  0.68546061  0.87555366    -0.79800
loop_ 
_geom_bond_atom_site_label_1 
_geom_bond_atom_site_label_2 
_geom_bond_distance 
_geom_bond_site_symmetry_2 
_ccdc_geom_bond_type 
C1            N6   1.361       .  A
C1          N562   1.361       .  A
C1           C97   1.477       .  S
N2          C561   1.361   1_545  A
N2         C1123   1.361       .  A
C3            N4   1.361       .  A
C3         N1122   1.361   1_455  A
C3          C132   1.477       .  S
N4          C565   1.361   1_545  A
C5          N564   1.361       .  A
C5         N1126   1.361   1_455  A
C5           C39   1.477       .  S
N6         C1125   1.361       .  A
C7            N8   1.355       .  A
C7           N12   1.355       .  A
C7           C20   1.453       .  S
N8            C9   1.354       .  A
C9           N10   1.354       .  A
C9          C113   1.452       .  S
N10          C11   1.354       .  A
C11          N12   1.355       .  A
C11          C78   1.453       .  S
C13          N14   1.359       .  A
C13          N18   1.363       .  A
C13          C93   1.463       .  S
N14          C15   1.358       .  A
C15          N16   1.352       .  A
C15          C70   1.464       .  S
N16         C297   1.359   1_554  A
C17         N296   1.359       .  A
C17         N298   1.358       .  A
C17         C249   1.470       .  S
N18         C297   1.358   1_554  A
O19          C35   1.269       .  A
O19         Zn25   1.988       .  S
C20          O36   1.272       .  A
C20          O33   1.271       .  A
O21          C34   1.283       .  A
O21         Cd28   2.121       .  S
O22          C40   1.267       .  A
O22         Cd31   2.032       .  S
O23          C37   1.282       .  A
O23         Cd27   2.122       .  S
O24          C35   1.278       .  A
O24         Cd27   2.094       .  S
Zn25         O36   2.009       .  S
Zn25         O38   1.971       .  S
Zn25         O30   1.904       .  S
O26          C37   1.268       .  A
O26         Cd31   2.014       .  S
Cd27         O29   2.092       .  S
Cd27         O30   1.994       .  S
Cd28         O32   2.096       .  S
Cd28         O41   2.105       .  S
Cd28         O30   1.993       .  S
O29          C39   1.281       .  A
O30         Cd31   1.951       .  S
Cd31         O33   2.050       .  S
O32          C39   1.282       .  A
C34         C207   1.471   1_554  S
C34          O38   1.269       .  A
C35         C604   1.461       .  S
C37         C269   1.469       .  S
C40        C1168   1.461   1_455  S
C40          O41   1.279       .  A
C42         N323   1.358       .  A
C42         N327   1.359       .  A
C42         C162   1.468       .  S
N43          C44   1.362       .  A
N43         C322   1.358   1_554  A
C44          N45   1.358       .  A
C44         C595   1.461   1_545  S
N45          C46   1.357       .  A
C46          N47   1.352       .  A
C46          C55   1.462       .  S
N47         C322   1.359   1_554  A
C48          N49   1.352       .  A
C48          N53   1.360       .  A
C48        C1160   1.461       .  S
N49          C50   1.358       .  A
C50          N51   1.357       .  A
C50          C74   1.471       .  S
N51          C52   1.365       .  A
C52          N53   1.359       .  A
C52         C252   1.471       .  S
O54          C70   1.273       .  A
O54         Zn60   2.021       .  S
C55          O71   1.276       .  A
C55          O68   1.272       .  A
O56          C69   1.282       .  A
O56         Cd63   2.116       .  S
O57          C75   1.269       .  A
O57         Cd66   2.024       .  S
O58          C72   1.272       .  A
O58         Cd62   2.063       .  S
O59          C70   1.275       .  A
O59         Cd62   2.074       .  S
Zn60         O71   2.038       .  S
Zn60         O73   1.973       .  S
Zn60         O65   1.920       .  S
O61          C72   1.276       .  A
O61         Cd66   2.081       .  S
Cd62         O64   2.023       .  S
Cd62         O65   1.970       .  S
Cd63         O67   2.120       .  S
Cd63         O76   2.122       .  S
Cd63         O65   2.019       .  S
O64          C74   1.269       .  A
O65         Cd66   1.972       .  S
Cd66         O68   2.055       .  S
O67          C74   1.282       .  A
C69         C110   1.472       .  S
C69          O73   1.269       .  A
C72         C137   1.463       .  S
C75         C104   1.472       .  S
C75          O76   1.282       .  A
O77          C93   1.269       .  A
O77         Zn83   1.988       .  S
C78          O94   1.272       .  A
C78          O91   1.271       .  A
O79          C92   1.283       .  A
O79         Cd86   2.120       .  S
O80          C98   1.267       .  A
O80         Cd89   2.032       .  S
O81          C95   1.283       .  A
O81         Cd85   2.126       .  S
O82          C93   1.278       .  A
O82         Cd85   2.099       .  S
Zn83         O94   2.008       .  S
Zn83         O96   1.970       .  S
Zn83         O88   1.905       .  S
O84          C95   1.268       .  A
O84         Cd89   2.014       .  S
Cd85         O87   2.094       .  S
Cd85         O88   1.995       .  S
Cd86         O90   2.095       .  S
Cd86         O99   2.107       .  S
Cd86         O88   1.994       .  S
O87          C97   1.281       .  A
O88         Cd89   1.951       .  S
Cd89         O91   2.050       .  S
O90          C97   1.282       .  A
C92         C267   1.471   1_554  S
C92          O96   1.269       .  A
C95         C259   1.470       .  S
C98         C662   1.462       .  S
C98          O99   1.279       .  A
C100        N101   1.359       .  A
C100        N105   1.365       .  A
C100        C200   1.471       .  S
N101        C102   1.360       .  A
C102        N103   1.353       .  A
C102        C658   1.462   1_545  S
N103        C104   1.358       .  A
C104        N105   1.357       .  A
C106        N107   1.361       .  A
C106        N111   1.354       .  A
C106        C133   1.462       .  S
N107        C108   1.359       .  A
C108        N109   1.364       .  A
C108        C165   1.471       .  S
N109        C110   1.356       .  A
C110        N111   1.359       .  A
O112        C128   1.269       .  A
O112       Zn118   1.990       .  S
C113        O129   1.272       .  A
C113        O126   1.270       .  A
O114        C127   1.283       .  A
O114       Cd121   2.120       .  S
O115        C133   1.267       .  A
O115       Cd124   2.033       .  S
O116        C130   1.282       .  A
O116       Cd120   2.123       .  S
O117        C128   1.278       .  A
O117       Cd120   2.098       .  S
Zn118       O129   2.009       .  S
Zn118       O131   1.971       .  S
Zn118       O123   1.905       .  S
O119        C130   1.268       .  A
O119       Cd124   2.012       .  S
Cd120       O122   2.094       .  S
Cd120       O123   1.995       .  S
Cd121       O125   2.095       .  S
Cd121       O134   2.107       .  S
Cd121       O123   1.995       .  S
O122        C132   1.281       .  A
O123       Cd124   1.952       .  S
Cd124       O126   2.047       .  S
O125        C132   1.282       .  A
C127        C454   1.472   1_554  S
C127        O131   1.269       .  A
C128       C1255   1.463   1_455  S
C130        C176   1.468       .  S
C133        O134   1.279       .  A
C135        N136   1.359       .  A
C135        N140   1.363       .  A
C135       C1248   1.463       .  S
N136        C137   1.358       .  A
C137        N138   1.352       .  A
N138        C419   1.359   1_554  A
C139        N418   1.359       .  A
C139        N420   1.358       .  A
C139        C197   1.469       .  S
N140        C419   1.358   1_554  A
C141        N142   1.361       .  A
C141       N1266   1.361       .  A
C141        C255   1.477       .  S
N142        C703   1.360       .  A
C143        N702   1.360   1_545  A
C143       N1264   1.362       .  A
C143        C203   1.476       .  S
N144        C145   1.361       .  A
N144       C1263   1.362   1_455  A
C145        N706   1.362   1_545  A
C145        C168   1.478       .  S
N146       C1261   1.361   1_455  A
N146        C705   1.362       .  A
O147        C163   1.272       .  A
O147       Zn153   2.008       .  S
C148        C170   1.464       .  S
C148        O164   1.268       .  A
C148        O161   1.279       .  A
O149        C162   1.281       .  A
O149       Cd156   2.119       .  S
O150        C168   1.282       .  A
O150       Cd159   2.101       .  S
O151        C165   1.270       .  A
O151       Cd155   2.025       .  S
O152        C163   1.271       .  A
O152       Cd155   2.051       .  S
Zn153       O164   1.984       .  S
Zn153       O166   1.956       .  S
Zn153       O158   1.900       .  S
O154        C165   1.284       .  A
O154       Cd159   2.125       .  S
Cd155       O157   2.039       .  S
Cd155       O158   1.958       .  S
Cd156       O160   2.100       .  S
Cd156       O169   2.090       .  S
Cd156       O158   1.997       .  S
O157        C167   1.268       .  A
O158       Cd159   1.994       .  S
Cd159       O161   2.104       .  S
O160        C167   1.278       .  A
C162        O166   1.268       .  A
C163        C277   1.453       .  S
C167        C833   1.461   1_545  S
C168        O169   1.281       .  A
C170        N171   1.354       .  A
C170        N175   1.361       .  A
N171        C172   1.359       .  A
C172        N173   1.356       .  A
C172        C226   1.473       .  S
N173        C174   1.364       .  A
C174        N175   1.359       .  A
C174        C407   1.472       .  S
C176        N177   1.358       .  A
C176        N181   1.360       .  A
N177        C178   1.363       .  A
C178        N179   1.357       .  A
C178       C1322   1.459   1_455  S
N179        C180   1.356       .  A
C180        N181   1.351       .  A
C180        C227   1.460       .  S
O182        C198   1.272       .  A
O182       Zn188   2.010       .  S
C183        C823   1.463   1_545  S
C183        O199   1.268       .  A
C183        O196   1.279       .  A
O184        C197   1.281       .  A
O184       Cd191   2.117       .  S
O185        C203   1.282       .  A
O185       Cd194   2.099       .  S
O186        C200   1.269       .  A
O186       Cd190   2.025       .  S
O187        C198   1.271       .  A
O187       Cd190   2.051       .  S
Zn188       O199   1.982       .  S
Zn188       O201   1.958       .  S
Zn188       O193   1.898       .  S
O189        C200   1.284       .  A
O189       Cd194   2.125       .  S
Cd190       O192   2.038       .  S
Cd190       O193   1.957       .  S
Cd191       O195   2.096       .  S
Cd191       O204   2.087       .  S
Cd191       O193   1.996       .  S
O192        C202   1.268       .  A
O193       Cd194   1.991       .  S
Cd194       O196   2.103       .  S
O195        C202   1.278       .  A
C197        O201   1.268       .  A
C198        C275   1.454       .  S
C202       C1298   1.459       .  S
C203        O204   1.280       .  A
C205        N206   1.360       .  A
C205        N210   1.354       .  A
C205       C1355   1.464   1_455  S
N206        C487   1.359       .  A
C207        N486   1.359       .  A
C207        N488   1.365       .  A
N208        C209   1.357       .  A
N208        C487   1.365       .  A
C209        N210   1.360       .  A
C209        C231   1.474       .  S
O211        C227   1.276       .  A
O211       Zn217   2.036       .  S
C212        C261   1.462       .  S
C212        O228   1.273       .  A
C212        O225   1.275       .  A
O213        C226   1.282       .  A
O213       Cd220   2.122       .  S
O214        C232   1.269       .  A
O214       Cd223   2.020       .  S
O215        C229   1.275       .  A
O215       Cd219   2.078       .  S
O216        C227   1.271       .  A
O216       Cd219   2.050       .  S
Zn217       O228   2.016       .  S
Zn217       O230   1.969       .  S
Zn217       O222   1.919       .  S
O218        C229   1.271       .  A
O218       Cd223   2.060       .  S
Cd219       O221   2.022       .  S
Cd219       O222   1.971       .  S
Cd220       O224   2.130       .  S
Cd220       O233   2.127       .  S
Cd220       O222   2.019       .  S
O221        C231   1.269       .  A
O222       Cd223   1.970       .  S
Cd223       O225   2.073       .  S
O224        C231   1.284       .  A
C226        O230   1.269       .  A
C229        C271   1.461       .  S
C232        C265   1.473       .  S
C232        O233   1.283       .  A
O234        C250   1.272       .  A
O234       Zn240   2.010       .  S
C235       C1325   1.464       .  S
C235        O251   1.268       .  A
C235        O248   1.279       .  A
O236        C249   1.282       .  A
O236       Cd243   2.122       .  S
O237        C255   1.282       .  A
O237       Cd246   2.098       .  S
O238        C252   1.269       .  A
O238       Cd242   2.025       .  S
O239        C250   1.271       .  A
O239       Cd242   2.048       .  S
Zn240       O251   1.982       .  S
Zn240       O253   1.958       .  S
Zn240       O245   1.900       .  S
O241        C252   1.284       .  A
O241       Cd246   2.125       .  S
Cd242       O244   2.037       .  S
Cd242       O245   1.958       .  S
Cd243       O247   2.103       .  S
Cd243       O256   2.091       .  S
Cd243       O245   1.998       .  S
O244        C254   1.268       .  A
O245       Cd246   1.994       .  S
Cd246       O248   2.106       .  S
O247        C254   1.279       .  A
C249        O253   1.268       .  A
C250        C279   1.453       .  S
C254        C257   1.461       .  S
C255        O256   1.281       .  A
C257        N258   1.363       .  A
C257        N262   1.359       .  A
N258        C259   1.358       .  A
C259        N260   1.359       .  A
N260        C261   1.351       .  A
C261        N262   1.358       .  A
C263        N264   1.353       .  A
C263        N268   1.360       .  A
C263        C743   1.463       .  S
N264        C265   1.359       .  A
C265        N266   1.357       .  A
N266        C547   1.365       .  A
C267        N546   1.365       .  A
C267        N548   1.359       .  A
N268        C547   1.359       .  A
C269        N270   1.359       .  A
C269        N274   1.358       .  A
N270        C271   1.351       .  A
C271        N272   1.357       .  A
N272        C273   1.358       .  A
C273        N274   1.363       .  A
C273        C727   1.461       .  S
C275        N276   1.355       .  A
C275        N280   1.355       .  A
N276        C277   1.355       .  A
C277        N278   1.354       .  A
N278        C279   1.354       .  A
C279        N280   1.355       .  A
C281        N842   1.361       .  A
C281        N286   1.361       .  A
C281        C377   1.477       .  S
N282        C841   1.361   1_545  A
N282       C1403   1.361       .  A
C283       N1402   1.361   1_455  A
C283        N284   1.361       .  A
C283        C412   1.477       .  S
N284        C845   1.361   1_545  A
C285        N844   1.361       .  A
C285       N1406   1.361   1_455  A
C285        C319   1.477       .  S
N286       C1405   1.361       .  A
C287        N288   1.355       .  A
C287        N292   1.355       .  A
C287        C300   1.453       .  S
N288        C289   1.354       .  A
C289        N290   1.354       .  A
C289        C393   1.452       .  S
N290        C291   1.354       .  A
C291        N292   1.355       .  A
C291        C358   1.453       .  S
C293        N294   1.359       .  A
C293        N298   1.363       .  A
C293        C373   1.463       .  S
N294        C295   1.358       .  A
C295        N296   1.352       .  A
C295        C350   1.464       .  S
C297        C529   1.470       .  S
O299        C315   1.269       .  A
O299       Zn305   1.988       .  S
C300        O316   1.272       .  A
C300        O313   1.271       .  A
O301        C314   1.283       .  A
O301       Cd308   2.121       .  S
O302        C320   1.267       .  A
O302       Cd311   2.032       .  S
O303        C317   1.282       .  A
O303       Cd307   2.122       .  S
O304        C315   1.278       .  A
O304       Cd307   2.094       .  S
Zn305       O316   2.009       .  S
Zn305       O318   1.971       .  S
Zn305       O310   1.904       .  S
O306        C317   1.268       .  A
O306       Cd311   2.014       .  S
Cd307       O309   2.092       .  S
Cd307       O310   1.994       .  S
Cd308       O312   2.096       .  S
Cd308       O321   2.105       .  S
Cd308       O310   1.993       .  S
O309        C319   1.281       .  A
O310       Cd311   1.951       .  S
Cd311       O313   2.050       .  S
O312        C319   1.282       .  A
C314        C487   1.471       .  S
C314        O318   1.269       .  A
C315        C884   1.461       .  S
C317        C549   1.469       .  S
C320       C1448   1.461   1_455  S
C320        O321   1.279       .  A
C322        C442   1.468       .  S
N323        C324   1.362       .  A
C324        N325   1.358       .  A
C324        C875   1.461   1_545  S
N325        C326   1.357       .  A
C326        N327   1.352       .  A
C326        C335   1.462       .  S
C328        N329   1.352       .  A
C328        N333   1.360       .  A
C328       C1440   1.461       .  S
N329        C330   1.358       .  A
C330        N331   1.357       .  A
C330        C354   1.471       .  S
N331        C332   1.365       .  A
C332        N333   1.359       .  A
C332        C532   1.471       .  S
O334        C350   1.273       .  A
O334       Zn340   2.021       .  S
C335        O351   1.277       .  A
C335        O348   1.272       .  A
O336        C349   1.282       .  A
O336       Cd343   2.116       .  S
O337        C355   1.269       .  A
O337       Cd346   2.024       .  S
O338        C352   1.272       .  A
O338       Cd342   2.063       .  S
O339        C350   1.275       .  A
O339       Cd342   2.074       .  S
Zn340       O351   2.038       .  S
Zn340       O353   1.973       .  S
Zn340       O345   1.920       .  S
O341        C352   1.276       .  A
O341       Cd346   2.081       .  S
Cd342       O344   2.023       .  S
Cd342       O345   1.970       .  S
Cd343       O347   2.120       .  S
Cd343       O356   2.122       .  S
Cd343       O345   2.019       .  S
O344        C354   1.269       .  A
O345       Cd346   1.972       .  S
Cd346       O348   2.055       .  S
O347        C354   1.282       .  A
C349        C390   1.472       .  S
C349        O353   1.269       .  A
C352        C417   1.463       .  S
C355        C384   1.472       .  S
C355        O356   1.282       .  A
O357        C373   1.269       .  A
O357       Zn363   1.988       .  S
C358        O374   1.272       .  A
C358        O371   1.271       .  A
O359        C372   1.283       .  A
O359       Cd366   2.120       .  S
O360        C378   1.267       .  A
O360       Cd369   2.032       .  S
O361        C375   1.283       .  A
O361       Cd365   2.126       .  S
O362        C373   1.278       .  A
O362       Cd365   2.099       .  S
Zn363       O374   2.008       .  S
Zn363       O376   1.970       .  S
Zn363       O368   1.905       .  S
O364        C375   1.268       .  A
O364       Cd369   2.014       .  S
Cd365       O367   2.094       .  S
Cd365       O368   1.995       .  S
Cd366       O370   2.095       .  S
Cd366       O379   2.107       .  S
Cd366       O368   1.994       .  S
O367        C377   1.281       .  A
O368       Cd369   1.951       .  S
Cd369       O371   2.050       .  S
O370        C377   1.282       .  A
C372        C547   1.471       .  S
C372        O376   1.269       .  A
C375        C539   1.470       .  S
C378        C942   1.462       .  S
C378        O379   1.279       .  A
C380        N381   1.359       .  A
C380        N385   1.365       .  A
C380        C480   1.471       .  S
N381        C382   1.360       .  A
C382        N383   1.353       .  A
C382        C938   1.462   1_545  S
N383        C384   1.358       .  A
C384        N385   1.357       .  A
C386        N387   1.361       .  A
C386        N391   1.354       .  A
C386        C413   1.462       .  S
N387        C388   1.359       .  A
C388        N389   1.364       .  A
C388        C445   1.471       .  S
N389        C390   1.356       .  A
C390        N391   1.359       .  A
O392        C408   1.269       .  A
O392       Zn398   1.990       .  S
C393        O409   1.272       .  A
C393        O406   1.270       .  A
O394        C407   1.283       .  A
O394       Cd401   2.120       .  S
O395        C413   1.267       .  A
O395       Cd404   2.033       .  S
O396        C410   1.282       .  A
O396       Cd400   2.123       .  S
O397        C408   1.278       .  A
O397       Cd400   2.098       .  S
Zn398       O409   2.009       .  S
Zn398       O411   1.971       .  S
Zn398       O403   1.905       .  S
O399        C410   1.268       .  A
O399       Cd404   2.012       .  S
Cd400       O402   2.094       .  S
Cd400       O403   1.995       .  S
Cd401       O405   2.095       .  S
Cd401       O414   2.107       .  S
Cd401       O403   1.995       .  S
O402        C412   1.281       .  A
O403       Cd404   1.952       .  S
Cd404       O406   2.047       .  S
O405        C412   1.282       .  A
C407        O411   1.269       .  A
C408       C1535   1.463   1_455  S
C410        C456   1.468       .  S
C413        O414   1.279       .  A
C415        N416   1.359       .  A
C415        N420   1.363       .  A
C415       C1528   1.463       .  S
N416        C417   1.358       .  A
C417        N418   1.352       .  A
C419        C477   1.469       .  S
C421        N422   1.361       .  A
C421       N1546   1.361       .  A
C421        C535   1.477       .  S
N422        C983   1.360       .  A
C423        N982   1.360   1_545  A
C423       N1544   1.362       .  A
C423        C483   1.476       .  S
N424       C1543   1.362   1_455  A
N424        C425   1.361       .  A
C425        N986   1.362   1_545  A
C425        C448   1.478       .  S
N426       C1541   1.361   1_455  A
N426        C985   1.362       .  A
O427        C443   1.272       .  A
O427       Zn433   2.008       .  S
C428        C450   1.464       .  S
C428        O444   1.268       .  A
C428        O441   1.279       .  A
O429        C442   1.281       .  A
O429       Cd436   2.119       .  S
O430        C448   1.282       .  A
O430       Cd439   2.101       .  S
O431        C445   1.270       .  A
O431       Cd435   2.025       .  S
O432        C443   1.271       .  A
O432       Cd435   2.051       .  S
Zn433       O444   1.984       .  S
Zn433       O446   1.956       .  S
Zn433       O438   1.900       .  S
O434        C445   1.284       .  A
O434       Cd439   2.125       .  S
Cd435       O437   2.039       .  S
Cd435       O438   1.958       .  S
Cd436       O440   2.100       .  S
Cd436       O449   2.090       .  S
Cd436       O438   1.997       .  S
O437        C447   1.268       .  A
O438       Cd439   1.994       .  S
Cd439       O441   2.104       .  S
O440        C447   1.278       .  A
C442        O446   1.268       .  A
C443        C557   1.453       .  S
C447       C1113   1.461   1_545  S
C448        O449   1.281       .  A
C450        N451   1.354       .  A
C450        N455   1.361       .  A
N451        C452   1.359       .  A
C452        N453   1.357       .  A
C452        C506   1.473       .  S
N453        C454   1.364       .  A
C454        N455   1.359       .  A
C456        N457   1.358       .  A
C456        N461   1.360       .  A
N457        C458   1.363       .  A
C458        N459   1.357       .  A
C458       C1602   1.459   1_455  S
N459        C460   1.356       .  A
C460        N461   1.351       .  A
C460        C507   1.460       .  S
O462        C478   1.272       .  A
O462       Zn468   2.010       .  S
C463       C1103   1.463   1_545  S
C463        O479   1.268       .  A
C463        O476   1.279       .  A
O464        C477   1.281       .  A
O464       Cd471   2.117       .  S
O465        C483   1.282       .  A
O465       Cd474   2.099       .  S
O466        C480   1.269       .  A
O466       Cd470   2.025       .  S
O467        C478   1.271       .  A
O467       Cd470   2.051       .  S
Zn468       O479   1.982       .  S
Zn468       O481   1.958       .  S
Zn468       O473   1.898       .  S
O469        C480   1.284       .  A
O469       Cd474   2.125       .  S
Cd470       O472   2.038       .  S
Cd470       O473   1.957       .  S
Cd471       O475   2.096       .  S
Cd471       O484   2.087       .  S
Cd471       O473   1.996       .  S
O472        C482   1.268       .  A
O473       Cd474   1.991       .  S
Cd474       O476   2.103       .  S
O475        C482   1.278       .  A
C477        O481   1.268       .  A
C478        C555   1.454       .  S
C482       C1578   1.459       .  S
C483        O484   1.280       .  A
C485        N486   1.360       .  A
C485        N490   1.354       .  A
C485       C1635   1.464   1_455  S
N488        C489   1.357       .  A
C489        N490   1.360       .  A
C489        C511   1.474       .  S
O491        C507   1.276       .  A
O491       Zn497   2.036       .  S
C492        C541   1.462       .  S
C492        O508   1.273       .  A
C492        O505   1.275       .  A
O493        C506   1.282       .  A
O493       Cd500   2.122       .  S
O494        C512   1.269       .  A
O494       Cd503   2.020       .  S
O495        C509   1.275       .  A
O495       Cd499   2.078       .  S
O496        C507   1.271       .  A
O496       Cd499   2.050       .  S
Zn497       O508   2.016       .  S
Zn497       O510   1.969       .  S
Zn497       O502   1.919       .  S
O498        C509   1.271       .  A
O498       Cd503   2.060       .  S
Cd499       O501   2.022       .  S
Cd499       O502   1.971       .  S
Cd500       O504   2.130       .  S
Cd500       O513   2.127       .  S
Cd500       O502   2.019       .  S
O501        C511   1.269       .  A
O502       Cd503   1.970       .  S
Cd503       O505   2.073       .  S
O504        C511   1.284       .  A
C506        O510   1.269       .  A
C509        C551   1.461       .  S
C512        C545   1.473       .  S
C512        O513   1.283       .  A
O514        C530   1.272       .  A
O514       Zn520   2.010       .  S
C515       C1605   1.464       .  S
C515        O531   1.268       .  A
C515        O528   1.279       .  A
O516        C529   1.282       .  A
O516       Cd523   2.122       .  S
O517        C535   1.282       .  A
O517       Cd526   2.098       .  S
O518        C532   1.269       .  A
O518       Cd522   2.025       .  S
O519        C530   1.271       .  A
O519       Cd522   2.048       .  S
Zn520       O531   1.982       .  S
Zn520       O533   1.958       .  S
Zn520       O525   1.900       .  S
O521        C532   1.284       .  A
O521       Cd526   2.125       .  S
Cd522       O524   2.037       .  S
Cd522       O525   1.958       .  S
Cd523       O527   2.103       .  S
Cd523       O536   2.091       .  S
Cd523       O525   1.998       .  S
O524        C534   1.268       .  A
O525       Cd526   1.994       .  S
Cd526       O528   2.106       .  S
O527        C534   1.279       .  A
C529        O533   1.268       .  A
C530        C559   1.453       .  S
C534        C537   1.461       .  S
C535        O536   1.281       .  A
C537        N538   1.363       .  A
C537        N542   1.359       .  A
N538        C539   1.358       .  A
C539        N540   1.359       .  A
N540        C541   1.351       .  A
C541        N542   1.358       .  A
C543        N544   1.353       .  A
C543        N548   1.360       .  A
C543       C1023   1.463       .  S
N544        C545   1.359       .  A
C545        N546   1.357       .  A
C549        N550   1.359       .  A
C549        N554   1.358       .  A
N550        C551   1.351       .  A
C551        N552   1.357       .  A
N552        C553   1.358       .  A
C553        N554   1.363       .  A
C553       C1007   1.461       .  S
C555        N556   1.355       .  A
C555        N560   1.355       .  A
N556        C557   1.355       .  A
C557        N558   1.354       .  A
N558        C559   1.354       .  A
C559        N560   1.355       .  A
C561        N566   1.361       .  A
C561        C657   1.477       .  S
N562       C1683   1.361       .  A
C563       N1682   1.361   1_455  A
C563        N564   1.361       .  A
C563        C692   1.477       .  S
C565       N1686   1.361   1_455  A
C565        C599   1.477       .  S
N566       C1685   1.361       .  A
C567        N568   1.355       .  A
C567        N572   1.355       .  A
C567        C580   1.453       .  S
N568        C569   1.354       .  A
C569        N570   1.354       .  A
C569        C673   1.452       .  S
N570        C571   1.354       .  A
C571        N572   1.355       .  A
C571        C638   1.453       .  S
C573        N574   1.359       .  A
C573        N578   1.363       .  A
C573        C653   1.463       .  S
N574        C575   1.358       .  A
C575        N576   1.352       .  A
C575        C630   1.464       .  S
N576        C857   1.359   1_554  A
C577        N856   1.359       .  A
C577        N858   1.358       .  A
C577        C809   1.470       .  S
N578        C857   1.358   1_554  A
O579        C595   1.269       .  A
O579       Zn585   1.988       .  S
C580        O596   1.272       .  A
C580        O593   1.271       .  A
O581        C594   1.283       .  A
O581       Cd588   2.121       .  S
O582        C600   1.267       .  A
O582       Cd591   2.032       .  S
O583        C597   1.282       .  A
O583       Cd587   2.122       .  S
O584        C595   1.278       .  A
O584       Cd587   2.094       .  S
Zn585       O596   2.009       .  S
Zn585       O598   1.971       .  S
Zn585       O590   1.904       .  S
O586        C597   1.268       .  A
O586       Cd591   2.014       .  S
Cd587       O589   2.092       .  S
Cd587       O590   1.994       .  S
Cd588       O592   2.096       .  S
Cd588       O601   2.105       .  S
Cd588       O590   1.993       .  S
O589        C599   1.281       .  A
O590       Cd591   1.951       .  S
Cd591       O593   2.050       .  S
O592        C599   1.282       .  A
C594        C767   1.471   1_554  S
C594        O598   1.269       .  A
C597        C829   1.469       .  S
C600       C1728   1.461   1_455  S
C600        O601   1.279       .  A
C602        N883   1.358       .  A
C602        N887   1.359       .  A
C602        C722   1.469       .  S
N603        C882   1.358   1_554  A
N603        C604   1.362       .  A
C604        N605   1.358       .  A
N605        C606   1.357       .  A
C606        N607   1.352       .  A
C606        C615   1.462       .  S
N607        C882   1.359   1_554  A
C608        N609   1.352       .  A
C608        N613   1.360       .  A
C608       C1720   1.461       .  S
N609        C610   1.358       .  A
C610        N611   1.357       .  A
C610        C634   1.471       .  S
N611        C612   1.365       .  A
C612        N613   1.359       .  A
C612        C812   1.471       .  S
O614        C630   1.273       .  A
O614       Zn620   2.021       .  S
C615        O631   1.276       .  A
C615        O628   1.272       .  A
O616        C629   1.282       .  A
O616       Cd623   2.116       .  S
O617        C635   1.269       .  A
O617       Cd626   2.024       .  S
O618        C632   1.272       .  A
O618       Cd622   2.063       .  S
O619        C630   1.275       .  A
O619       Cd622   2.074       .  S
Zn620       O631   2.038       .  S
Zn620       O633   1.973       .  S
Zn620       O625   1.920       .  S
O621        C632   1.276       .  A
O621       Cd626   2.081       .  S
Cd622       O624   2.023       .  S
Cd622       O625   1.970       .  S
Cd623       O627   2.120       .  S
Cd623       O636   2.122       .  S
Cd623       O625   2.019       .  S
O624        C634   1.269       .  A
O625       Cd626   1.972       .  S
Cd626       O628   2.055       .  S
O627        C634   1.282       .  A
C629        C670   1.472       .  S
C629        O633   1.269       .  A
C632        C697   1.463       .  S
C635        C664   1.472       .  S
C635        O636   1.282       .  A
O637        C653   1.269       .  A
O637       Zn643   1.988       .  S
C638        O654   1.272       .  A
C638        O651   1.271       .  A
O639        C652   1.283       .  A
O639       Cd646   2.120       .  S
O640        C658   1.267       .  A
O640       Cd649   2.032       .  S
O641        C655   1.283       .  A
O641       Cd645   2.126       .  S
O642        C653   1.278       .  A
O642       Cd645   2.099       .  S
Zn643       O654   2.008       .  S
Zn643       O656   1.970       .  S
Zn643       O648   1.905       .  S
O644        C655   1.268       .  A
O644       Cd649   2.014       .  S
Cd645       O647   2.094       .  S
Cd645       O648   1.995       .  S
Cd646       O650   2.095       .  S
Cd646       O659   2.107       .  S
Cd646       O648   1.994       .  S
O647        C657   1.281       .  A
O648       Cd649   1.951       .  S
Cd649       O651   2.050       .  S
O650        C657   1.282       .  A
C652        C827   1.471   1_554  S
C652        O656   1.269       .  A
C655        C819   1.470       .  S
C658        O659   1.279       .  A
C660        N661   1.359       .  A
C660        N665   1.365       .  A
C660        C760   1.471       .  S
N661        C662   1.360       .  A
C662        N663   1.353       .  A
N663        C664   1.358       .  A
C664        N665   1.357       .  A
C666        N667   1.361       .  A
C666        N671   1.354       .  A
C666        C693   1.462       .  S
N667        C668   1.359       .  A
C668        N669   1.364       .  A
C668        C725   1.471       .  S
N669        C670   1.356       .  A
C670        N671   1.359       .  A
O672        C688   1.269       .  A
O672       Zn678   1.990       .  S
C673        O689   1.272       .  A
C673        O686   1.270       .  A
O674        C687   1.283       .  A
O674       Cd681   2.120       .  S
O675        C693   1.267       .  A
O675       Cd684   2.033       .  S
O676        C690   1.282       .  A
O676       Cd680   2.123       .  S
O677        C688   1.278       .  A
O677       Cd680   2.098       .  S
Zn678       O689   2.009       .  S
Zn678       O691   1.971       .  S
Zn678       O683   1.905       .  S
O679        C690   1.268       .  A
O679       Cd684   2.012       .  S
Cd680       O682   2.094       .  S
Cd680       O683   1.995       .  S
Cd681       O685   2.095       .  S
Cd681       O694   2.107       .  S
Cd681       O683   1.995       .  S
O682        C692   1.281       .  A
O683       Cd684   1.952       .  S
Cd684       O686   2.047       .  S
O685        C692   1.282       .  A
C687       C1014   1.472   1_554  S
C687        O691   1.269       .  A
C688       C1815   1.463   1_455  S
C690        C736   1.468       .  S
C693        O694   1.279       .  A
C695        N696   1.359       .  A
C695        N700   1.363       .  A
C695       C1808   1.463       .  S
N696        C697   1.358       .  A
C697        N698   1.352       .  A
N698        C979   1.359   1_554  A
C699        N978   1.359       .  A
C699        N980   1.358       .  A
C699        C757   1.469       .  S
N700        C979   1.358   1_554  A
C701        N702   1.361       .  A
C701       N1826   1.361       .  A
C701        C815   1.477       .  S
C703       N1824   1.362       .  A
C703        C763   1.476       .  S
N704       C1823   1.362   1_455  A
N704        C705   1.361       .  A
C705        C728   1.478       .  S
N706       C1821   1.361   1_455  A
O707        C723   1.272       .  A
O707       Zn713   2.008       .  S
C708        C730   1.464       .  S
C708        O724   1.268       .  A
C708        O721   1.279       .  A
O709        C722   1.281       .  A
O709       Cd716   2.119       .  S
O710        C728   1.282       .  A
O710       Cd719   2.101       .  S
O711        C725   1.270       .  A
O711       Cd715   2.025       .  S
O712        C723   1.271       .  A
O712       Cd715   2.051       .  S
Zn713       O724   1.984       .  S
Zn713       O726   1.956       .  S
Zn713       O718   1.900       .  S
O714        C725   1.284       .  A
O714       Cd719   2.125       .  S
Cd715       O717   2.039       .  S
Cd715       O718   1.958       .  S
Cd716       O720   2.100       .  S
Cd716       O729   2.090       .  S
Cd716       O718   1.997       .  S
O717        C727   1.268       .  A
O718       Cd719   1.994       .  S
Cd719       O721   2.104       .  S
O720        C727   1.278       .  A
C722        O726   1.268       .  A
C723        C837   1.453       .  S
C728        O729   1.281       .  A
C730        N731   1.354       .  A
C730        N735   1.361       .  A
N731        C732   1.359       .  A
C732        N733   1.357       .  A
C732        C786   1.473       .  S
N733        C734   1.364       .  A
C734        N735   1.359       .  A
C734        C967   1.472       .  S
C736        N737   1.358       .  A
C736        N741   1.360       .  A
N737        C738   1.363       .  A
C738        N739   1.357       .  A
C738       C1882   1.459   1_455  S
N739        C740   1.356       .  A
C740        N741   1.351       .  A
C740        C787   1.460       .  S
O742        C758   1.272       .  A
O742       Zn748   2.010       .  S
C743        O759   1.268       .  A
C743        O756   1.279       .  A
O744        C757   1.281       .  A
O744       Cd751   2.117       .  S
O745        C763   1.282       .  A
O745       Cd754   2.099       .  S
O746        C760   1.269       .  A
O746       Cd750   2.025       .  S
O747        C758   1.271       .  A
O747       Cd750   2.051       .  S
Zn748       O759   1.982       .  S
Zn748       O761   1.958       .  S
Zn748       O753   1.898       .  S
O749        C760   1.284       .  A
O749       Cd754   2.125       .  S
Cd750       O752   2.038       .  S
Cd750       O753   1.957       .  S
Cd751       O755   2.096       .  S
Cd751       O764   2.087       .  S
Cd751       O753   1.996       .  S
O752        C762   1.268       .  A
O753       Cd754   1.991       .  S
Cd754       O756   2.103       .  S
O755        C762   1.278       .  A
C757        O761   1.268       .  A
C758        C835   1.454       .  S
C762       C1858   1.459       .  S
C763        O764   1.280       .  A
C765        N766   1.360       .  A
C765        N770   1.354       .  A
C765       C1915   1.464   1_455  S
N766       C1047   1.359       .  A
C767       N1046   1.359       .  A
C767       N1048   1.365       .  A
N768       C1047   1.365       .  A
N768        C769   1.357       .  A
C769        N770   1.360       .  A
C769        C791   1.474       .  S
O771        C787   1.276       .  A
O771       Zn777   2.036       .  S
C772        C821   1.462       .  S
C772        O788   1.273       .  A
C772        O785   1.275       .  A
O773        C786   1.282       .  A
O773       Cd780   2.122       .  S
O774        C792   1.269       .  A
O774       Cd783   2.020       .  S
O775        C789   1.275       .  A
O775       Cd779   2.078       .  S
O776        C787   1.271       .  A
O776       Cd779   2.050       .  S
Zn777       O788   2.016       .  S
Zn777       O790   1.969       .  S
Zn777       O782   1.919       .  S
O778        C789   1.271       .  A
O778       Cd783   2.060       .  S
Cd779       O781   2.022       .  S
Cd779       O782   1.971       .  S
Cd780       O784   2.130       .  S
Cd780       O793   2.127       .  S
Cd780       O782   2.019       .  S
O781        C791   1.269       .  A
O782       Cd783   1.970       .  S
Cd783       O785   2.073       .  S
O784        C791   1.284       .  A
C786        O790   1.269       .  A
C789        C831   1.461       .  S
C792        C825   1.473       .  S
C792        O793   1.283       .  A
O794        C810   1.272       .  A
O794       Zn800   2.010       .  S
C795       C1885   1.464       .  S
C795        O811   1.268       .  A
C795        O808   1.279       .  A
O796        C809   1.282       .  A
O796       Cd803   2.122       .  S
O797        C815   1.282       .  A
O797       Cd806   2.098       .  S
O798        C812   1.269       .  A
O798       Cd802   2.025       .  S
O799        C810   1.271       .  A
O799       Cd802   2.048       .  S
Zn800       O811   1.982       .  S
Zn800       O813   1.958       .  S
Zn800       O805   1.900       .  S
O801        C812   1.284       .  A
O801       Cd806   2.125       .  S
Cd802       O804   2.037       .  S
Cd802       O805   1.958       .  S
Cd803       O807   2.103       .  S
Cd803       O816   2.091       .  S
Cd803       O805   1.998       .  S
O804        C814   1.268       .  A
O805       Cd806   1.994       .  S
Cd806       O808   2.106       .  S
O807        C814   1.279       .  A
C809        O813   1.268       .  A
C810        C839   1.453       .  S
C814        C817   1.461       .  S
C815        O816   1.281       .  A
C817        N818   1.363       .  A
C817        N822   1.359       .  A
N818        C819   1.358       .  A
C819        N820   1.359       .  A
N820        C821   1.351       .  A
C821        N822   1.357       .  A
C823        N824   1.353       .  A
C823        N828   1.360       .  A
N824        C825   1.359       .  A
C825        N826   1.357       .  A
N826       C1107   1.365       .  A
C827       N1106   1.365       .  A
C827       N1108   1.359       .  A
N828       C1107   1.359       .  A
C829        N830   1.359       .  A
C829        N834   1.358       .  A
N830        C831   1.351       .  A
C831        N832   1.357       .  A
N832        C833   1.358       .  A
C833        N834   1.363       .  A
C835        N836   1.355       .  A
C835        N840   1.355       .  A
N836        C837   1.355       .  A
C837        N838   1.354       .  A
N838        C839   1.354       .  A
C839        N840   1.355       .  A
C841        N846   1.361       .  A
C841        C937   1.477       .  S
N842       C1963   1.361       .  A
C843       N1962   1.361   1_455  A
C843        N844   1.361       .  A
C843        C972   1.477       .  S
C845       N1966   1.361   1_455  A
C845        C879   1.477       .  S
N846       C1965   1.361       .  A
C847        N848   1.355       .  A
C847        N852   1.355       .  A
C847        C860   1.453       .  S
N848        C849   1.354       .  A
C849        N850   1.354       .  A
C849        C953   1.452       .  S
N850        C851   1.354       .  A
C851        N852   1.355       .  A
C851        C918   1.453       .  S
C853        N854   1.359       .  A
C853        N858   1.363       .  A
C853        C933   1.463       .  S
N854        C855   1.358       .  A
C855        N856   1.352       .  A
C855        C910   1.464       .  S
C857       C1089   1.470       .  S
O859        C875   1.269       .  A
O859       Zn865   1.988       .  S
C860        O876   1.272       .  A
C860        O873   1.271       .  A
O861        C874   1.283       .  A
O861       Cd868   2.121       .  S
O862        C880   1.267       .  A
O862       Cd871   2.032       .  S
O863        C877   1.282       .  A
O863       Cd867   2.122       .  S
O864        C875   1.278       .  A
O864       Cd867   2.094       .  S
Zn865       O876   2.009       .  S
Zn865       O878   1.971       .  S
Zn865       O870   1.904       .  S
O866        C877   1.268       .  A
O866       Cd871   2.014       .  S
Cd867       O869   2.092       .  S
Cd867       O870   1.994       .  S
Cd868       O872   2.096       .  S
Cd868       O881   2.105       .  S
Cd868       O870   1.993       .  S
O869        C879   1.281       .  A
O870       Cd871   1.951       .  S
Cd871       O873   2.050       .  S
O872        C879   1.282       .  A
C874       C1047   1.471       .  S
C874        O878   1.269       .  A
C877       C1109   1.469       .  S
C880       C2008   1.461   1_455  S
C880        O881   1.279       .  A
C882       C1002   1.468       .  S
N883        C884   1.362       .  A
C884        N885   1.358       .  A
N885        C886   1.357       .  A
C886        N887   1.352       .  A
C886        C895   1.462       .  S
C888        N889   1.352       .  A
C888        N893   1.360       .  A
C888       C2000   1.461       .  S
N889        C890   1.358       .  A
C890        N891   1.357       .  A
C890        C914   1.471       .  S
N891        C892   1.365       .  A
C892        N893   1.359       .  A
C892       C1092   1.471       .  S
O894        C910   1.273       .  A
O894       Zn900   2.021       .  S
C895        O911   1.277       .  A
C895        O908   1.271       .  A
O896        C909   1.282       .  A
O896       Cd903   2.116       .  S
O897        C915   1.269       .  A
O897       Cd906   2.024       .  S
O898        C912   1.272       .  A
O898       Cd902   2.063       .  S
O899        C910   1.275       .  A
O899       Cd902   2.074       .  S
Zn900       O911   2.038       .  S
Zn900       O913   1.973       .  S
Zn900       O905   1.920       .  S
O901        C912   1.276       .  A
O901       Cd906   2.081       .  S
Cd902       O904   2.023       .  S
Cd902       O905   1.970       .  S
Cd903       O907   2.120       .  S
Cd903       O916   2.122       .  S
Cd903       O905   2.019       .  S
O904        C914   1.269       .  A
O905       Cd906   1.972       .  S
Cd906       O908   2.055       .  S
O907        C914   1.282       .  A
C909        C950   1.472       .  S
C909        O913   1.269       .  A
C912        C977   1.463       .  S
C915        C944   1.472       .  S
C915        O916   1.282       .  A
O917        C933   1.269       .  A
O917       Zn923   1.988       .  S
C918        O934   1.272       .  A
C918        O931   1.271       .  A
O919        C932   1.283       .  A
O919       Cd926   2.120       .  S
O920        C938   1.267       .  A
O920       Cd929   2.032       .  S
O921        C935   1.283       .  A
O921       Cd925   2.126       .  S
O922        C933   1.278       .  A
O922       Cd925   2.099       .  S
Zn923       O934   2.008       .  S
Zn923       O936   1.970       .  S
Zn923       O928   1.905       .  S
O924        C935   1.268       .  A
O924       Cd929   2.014       .  S
Cd925       O927   2.094       .  S
Cd925       O928   1.995       .  S
Cd926       O930   2.095       .  S
Cd926       O939   2.107       .  S
Cd926       O928   1.994       .  S
O927        C937   1.281       .  A
O928       Cd929   1.951       .  S
Cd929       O931   2.050       .  S
O930        C937   1.282       .  A
C932       C1107   1.471       .  S
C932        O936   1.269       .  A
C935       C1099   1.470       .  S
C938        O939   1.279       .  A
C940        N941   1.359       .  A
C940        N945   1.365       .  A
C940       C1040   1.471       .  S
N941        C942   1.360       .  A
C942        N943   1.353       .  A
N943        C944   1.358       .  A
C944        N945   1.357       .  A
C946        N947   1.361       .  A
C946        N951   1.354       .  A
C946        C973   1.462       .  S
N947        C948   1.359       .  A
C948        N949   1.364       .  A
C948       C1005   1.471       .  S
N949        C950   1.356       .  A
C950        N951   1.359       .  A
O952        C968   1.269       .  A
O952       Zn958   1.990       .  S
C953        O969   1.272       .  A
C953        O966   1.270       .  A
O954        C967   1.283       .  A
O954       Cd961   2.120       .  S
O955        C973   1.267       .  A
O955       Cd964   2.033       .  S
O956        C970   1.282       .  A
O956       Cd960   2.123       .  S
O957        C968   1.278       .  A
O957       Cd960   2.098       .  S
Zn958       O969   2.009       .  S
Zn958       O971   1.971       .  S
Zn958       O963   1.905       .  S
O959        C970   1.268       .  A
O959       Cd964   2.012       .  S
Cd960       O962   2.094       .  S
Cd960       O963   1.995       .  S
Cd961       O965   2.095       .  S
Cd961       O974   2.107       .  S
Cd961       O963   1.995       .  S
O962        C972   1.281       .  A
O963       Cd964   1.952       .  S
Cd964       O966   2.047       .  S
O965        C972   1.282       .  A
C967        O971   1.269       .  A
C968       C2095   1.463   1_455  S
C970       C1016   1.468       .  S
C973        O974   1.279       .  A
C975        N976   1.359       .  A
C975        N980   1.363       .  A
C975       C2088   1.463       .  S
N976        C977   1.358       .  A
C977        N978   1.352       .  A
C979       C1037   1.469       .  S
C981        N982   1.361       .  A
C981       N2106   1.361       .  A
C981       C1095   1.477       .  S
C983       N2104   1.362       .  A
C983       C1043   1.476       .  S
N984       C2103   1.362   1_455  A
N984        C985   1.361       .  A
C985       C1008   1.478       .  S
N986       C2101   1.361   1_455  A
O987       C1003   1.272       .  A
O987       Zn993   2.008       .  S
C988       C1010   1.464       .  S
C988       O1004   1.268       .  A
C988       O1001   1.279       .  A
O989       C1002   1.281       .  A
O989       Cd996   2.119       .  S
O990       C1008   1.282       .  A
O990       Cd999   2.101       .  S
O991       C1005   1.270       .  A
O991       Cd995   2.025       .  S
O992       C1003   1.271       .  A
O992       Cd995   2.051       .  S
Zn993      O1004   1.984       .  S
Zn993      O1006   1.956       .  S
Zn993       O998   1.900       .  S
O994       C1005   1.284       .  A
O994       Cd999   2.125       .  S
Cd995       O997   2.039       .  S
Cd995       O998   1.958       .  S
Cd996      O1000   2.100       .  S
Cd996      O1009   2.090       .  S
Cd996       O998   1.997       .  S
O997       C1007   1.268       .  A
O998       Cd999   1.994       .  S
Cd999      O1001   2.104       .  S
O1000      C1007   1.278       .  A
C1002      O1006   1.268       .  A
C1003      C1117   1.453       .  S
C1008      O1009   1.281       .  A
C1010      N1011   1.354       .  A
C1010      N1015   1.361       .  A
N1011      C1012   1.359       .  A
C1012      N1013   1.357       .  A
C1012      C1066   1.473       .  S
N1013      C1014   1.364       .  A
C1014      N1015   1.359       .  A
C1016      N1017   1.358       .  A
C1016      N1021   1.360       .  A
N1017      C1018   1.363       .  A
C1018      N1019   1.357       .  A
C1018      C2162   1.459   1_455  S
N1019      C1020   1.356       .  A
C1020      N1021   1.351       .  A
C1020      C1067   1.460       .  S
O1022      C1038   1.272       .  A
O1022     Zn1028   2.010       .  S
C1023      O1039   1.268       .  A
C1023      O1036   1.279       .  A
O1024      C1037   1.281       .  A
O1024     Cd1031   2.117       .  S
O1025      C1043   1.282       .  A
O1025     Cd1034   2.099       .  S
O1026      C1040   1.269       .  A
O1026     Cd1030   2.025       .  S
O1027      C1038   1.271       .  A
O1027     Cd1030   2.051       .  S
Zn1028     O1039   1.982       .  S
Zn1028     O1041   1.958       .  S
Zn1028     O1033   1.898       .  S
O1029      C1040   1.284       .  A
O1029     Cd1034   2.125       .  S
Cd1030     O1032   2.038       .  S
Cd1030     O1033   1.957       .  S
Cd1031     O1035   2.096       .  S
Cd1031     O1044   2.087       .  S
Cd1031     O1033   1.996       .  S
O1032      C1042   1.268       .  A
O1033     Cd1034   1.991       .  S
Cd1034     O1036   2.103       .  S
O1035      C1042   1.278       .  A
C1037      O1041   1.268       .  A
C1038      C1115   1.454       .  S
C1042      C2138   1.459       .  S
C1043      O1044   1.280       .  A
C1045      N1046   1.360       .  A
C1045      N1050   1.354       .  A
C1045      C2195   1.464   1_455  S
N1048      C1049   1.357       .  A
C1049      N1050   1.360       .  A
C1049      C1071   1.474       .  S
O1051      C1067   1.276       .  A
O1051     Zn1057   2.036       .  S
C1052      C1101   1.462       .  S
C1052      O1068   1.273       .  A
C1052      O1065   1.275       .  A
O1053      C1066   1.282       .  A
O1053     Cd1060   2.122       .  S
O1054      C1072   1.269       .  A
O1054     Cd1063   2.020       .  S
O1055      C1069   1.275       .  A
O1055     Cd1059   2.078       .  S
O1056      C1067   1.271       .  A
O1056     Cd1059   2.050       .  S
Zn1057     O1068   2.016       .  S
Zn1057     O1070   1.969       .  S
Zn1057     O1062   1.919       .  S
O1058      C1069   1.271       .  A
O1058     Cd1063   2.060       .  S
Cd1059     O1061   2.022       .  S
Cd1059     O1062   1.971       .  S
Cd1060     O1064   2.130       .  S
Cd1060     O1073   2.127       .  S
Cd1060     O1062   2.019       .  S
O1061      C1071   1.269       .  A
O1062     Cd1063   1.970       .  S
Cd1063     O1065   2.073       .  S
O1064      C1071   1.284       .  A
C1066      O1070   1.269       .  A
C1069      C1111   1.461       .  S
C1072      C1105   1.473       .  S
C1072      O1073   1.283       .  A
O1074      C1090   1.272       .  A
O1074     Zn1080   2.010       .  S
C1075      C2165   1.464       .  S
C1075      O1091   1.268       .  A
C1075      O1088   1.279       .  A
O1076      C1089   1.282       .  A
O1076     Cd1083   2.122       .  S
O1077      C1095   1.282       .  A
O1077     Cd1086   2.098       .  S
O1078      C1092   1.269       .  A
O1078     Cd1082   2.025       .  S
O1079      C1090   1.271       .  A
O1079     Cd1082   2.048       .  S
Zn1080     O1091   1.982       .  S
Zn1080     O1093   1.958       .  S
Zn1080     O1085   1.900       .  S
O1081      C1092   1.284       .  A
O1081     Cd1086   2.125       .  S
Cd1082     O1084   2.037       .  S
Cd1082     O1085   1.958       .  S
Cd1083     O1087   2.103       .  S
Cd1083     O1096   2.091       .  S
Cd1083     O1085   1.998       .  S
O1084      C1094   1.268       .  A
O1085     Cd1086   1.994       .  S
Cd1086     O1088   2.106       .  S
O1087      C1094   1.279       .  A
C1089      O1093   1.268       .  A
C1090      C1119   1.453       .  S
C1094      C1097   1.461       .  S
C1095      O1096   1.281       .  A
C1097      N1098   1.363       .  A
C1097      N1102   1.359       .  A
N1098      C1099   1.358       .  A
C1099      N1100   1.359       .  A
N1100      C1101   1.351       .  A
C1101      N1102   1.358       .  A
C1103      N1104   1.353       .  A
C1103      N1108   1.360       .  A
N1104      C1105   1.359       .  A
C1105      N1106   1.357       .  A
C1109      N1110   1.359       .  A
C1109      N1114   1.358       .  A
N1110      C1111   1.351       .  A
C1111      N1112   1.357       .  A
N1112      C1113   1.358       .  A
C1113      N1114   1.363       .  A
C1115      N1116   1.355       .  A
C1115      N1120   1.355       .  A
N1116      C1117   1.355       .  A
C1117      N1118   1.354       .  A
N1118      C1119   1.354       .  A
C1119      N1120   1.355       .  A
C1121      N1682   1.361       .  A
C1121      N1126   1.361       .  A
C1121      C1217   1.477       .  S
N1122      C1681   1.361   1_545  A
C1123      N1124   1.361       .  A
C1123      C1252   1.477       .  S
N1124      C1685   1.361   1_545  A
C1125      N1684   1.361       .  A
C1125      C1159   1.477       .  S
C1127      N1128   1.355       .  A
C1127      N1132   1.355       .  A
C1127      C1140   1.453       .  S
N1128      C1129   1.354       .  A
C1129      N1130   1.354       .  A
C1129      C1233   1.452       .  S
N1130      C1131   1.354       .  A
C1131      N1132   1.355       .  A
C1131      C1198   1.453       .  S
C1133      N1134   1.359       .  A
C1133      N1138   1.363       .  A
C1133      C1213   1.463       .  S
N1134      C1135   1.358       .  A
C1135      N1136   1.352       .  A
C1135      C1190   1.464       .  S
N1136      C1417   1.359   1_554  A
C1137      N1416   1.359       .  A
C1137      N1418   1.358       .  A
C1137      C1369   1.470       .  S
N1138      C1417   1.358   1_554  A
O1139      C1155   1.269       .  A
O1139     Zn1145   1.988       .  S
C1140      O1156   1.272       .  A
C1140      O1153   1.271       .  A
O1141      C1154   1.283       .  A
O1141     Cd1148   2.121       .  S
O1142      C1160   1.267       .  A
O1142     Cd1151   2.032       .  S
O1143      C1157   1.282       .  A
O1143     Cd1147   2.122       .  S
O1144      C1155   1.278       .  A
O1144     Cd1147   2.094       .  S
Zn1145     O1156   2.009       .  S
Zn1145     O1158   1.971       .  S
Zn1145     O1150   1.904       .  S
O1146      C1157   1.268       .  A
O1146     Cd1151   2.014       .  S
Cd1147     O1149   2.092       .  S
Cd1147     O1150   1.994       .  S
Cd1148     O1152   2.096       .  S
Cd1148     O1161   2.105       .  S
Cd1148     O1150   1.993       .  S
O1149      C1159   1.281       .  A
O1150     Cd1151   1.951       .  S
Cd1151     O1153   2.050       .  S
O1152      C1159   1.282       .  A
C1154      C1327   1.471   1_554  S
C1154      O1158   1.269       .  A
C1155      C1724   1.461       .  S
C1157      C1389   1.469       .  S
C1160      O1161   1.279       .  A
C1162      N1443   1.358       .  A
C1162      N1447   1.359       .  A
C1162      C1282   1.468       .  S
N1163      C1442   1.358   1_554  A
N1163      C1164   1.362       .  A
C1164      N1165   1.358       .  A
C1164      C1715   1.461   1_545  S
N1165      C1166   1.357       .  A
C1166      N1167   1.352       .  A
C1166      C1175   1.462       .  S
N1167      C1442   1.359   1_554  A
C1168      N1169   1.352       .  A
C1168      N1173   1.360       .  A
N1169      C1170   1.358       .  A
C1170      N1171   1.357       .  A
C1170      C1194   1.471       .  S
N1171      C1172   1.365       .  A
C1172      N1173   1.359       .  A
C1172      C1372   1.471       .  S
O1174      C1190   1.273       .  A
O1174     Zn1180   2.021       .  S
C1175      O1191   1.276       .  A
C1175      O1188   1.272       .  A
O1176      C1189   1.282       .  A
O1176     Cd1183   2.116       .  S
O1177      C1195   1.269       .  A
O1177     Cd1186   2.024       .  S
O1178      C1192   1.272       .  A
O1178     Cd1182   2.063       .  S
O1179      C1190   1.275       .  A
O1179     Cd1182   2.074       .  S
Zn1180     O1191   2.038       .  S
Zn1180     O1193   1.973       .  S
Zn1180     O1185   1.920       .  S
O1181      C1192   1.276       .  A
O1181     Cd1186   2.081       .  S
Cd1182     O1184   2.023       .  S
Cd1182     O1185   1.970       .  S
Cd1183     O1187   2.120       .  S
Cd1183     O1196   2.122       .  S
Cd1183     O1185   2.019       .  S
O1184      C1194   1.269       .  A
O1185     Cd1186   1.972       .  S
Cd1186     O1188   2.055       .  S
O1187      C1194   1.282       .  A
C1189      C1230   1.472       .  S
C1189      O1193   1.269       .  A
C1192      C1257   1.463       .  S
C1195      C1224   1.472       .  S
C1195      O1196   1.282       .  A
O1197      C1213   1.269       .  A
O1197     Zn1203   1.988       .  S
C1198      O1214   1.272       .  A
C1198      O1211   1.271       .  A
O1199      C1212   1.283       .  A
O1199     Cd1206   2.120       .  S
O1200      C1218   1.267       .  A
O1200     Cd1209   2.032       .  S
O1201      C1215   1.283       .  A
O1201     Cd1205   2.126       .  S
O1202      C1213   1.278       .  A
O1202     Cd1205   2.099       .  S
Zn1203     O1214   2.008       .  S
Zn1203     O1216   1.970       .  S
Zn1203     O1208   1.905       .  S
O1204      C1215   1.268       .  A
O1204     Cd1209   2.014       .  S
Cd1205     O1207   2.094       .  S
Cd1205     O1208   1.995       .  S
Cd1206     O1210   2.095       .  S
Cd1206     O1219   2.107       .  S
Cd1206     O1208   1.994       .  S
O1207      C1217   1.281       .  A
O1208     Cd1209   1.951       .  S
Cd1209     O1211   2.050       .  S
O1210      C1217   1.282       .  A
C1212      C1387   1.471   1_554  S
C1212      O1216   1.269       .  A
C1215      C1379   1.470       .  S
C1218      C1782   1.462       .  S
C1218      O1219   1.279       .  A
C1220      N1221   1.359       .  A
C1220      N1225   1.365       .  A
C1220      C1320   1.471       .  S
N1221      C1222   1.360       .  A
C1222      N1223   1.353       .  A
C1222      C1778   1.462   1_545  S
N1223      C1224   1.358       .  A
C1224      N1225   1.357       .  A
C1226      N1227   1.361       .  A
C1226      N1231   1.354       .  A
C1226      C1253   1.462       .  S
N1227      C1228   1.359       .  A
C1228      N1229   1.364       .  A
C1228      C1285   1.471       .  S
N1229      C1230   1.356       .  A
C1230      N1231   1.359       .  A
O1232      C1248   1.269       .  A
O1232     Zn1238   1.990       .  S
C1233      O1249   1.272       .  A
C1233      O1246   1.270       .  A
O1234      C1247   1.283       .  A
O1234     Cd1241   2.120       .  S
O1235      C1253   1.267       .  A
O1235     Cd1244   2.033       .  S
O1236      C1250   1.282       .  A
O1236     Cd1240   2.123       .  S
O1237      C1248   1.278       .  A
O1237     Cd1240   2.098       .  S
Zn1238     O1249   2.009       .  S
Zn1238     O1251   1.971       .  S
Zn1238     O1243   1.905       .  S
O1239      C1250   1.268       .  A
O1239     Cd1244   2.012       .  S
Cd1240     O1242   2.094       .  S
Cd1240     O1243   1.995       .  S
Cd1241     O1245   2.095       .  S
Cd1241     O1254   2.107       .  S
Cd1241     O1243   1.995       .  S
O1242      C1252   1.281       .  A
O1243     Cd1244   1.952       .  S
Cd1244     O1246   2.047       .  S
O1245      C1252   1.282       .  A
C1247      C1574   1.472   1_554  S
C1247      O1251   1.269       .  A
C1250      C1296   1.468       .  S
C1253      O1254   1.279       .  A
C1255      N1256   1.359       .  A
C1255      N1260   1.363       .  A
N1256      C1257   1.358       .  A
C1257      N1258   1.352       .  A
N1258      C1539   1.359   1_554  A
C1259      N1538   1.359       .  A
C1259      N1540   1.358       .  A
C1259      C1317   1.469       .  S
N1260      C1539   1.358   1_554  A
C1261      N1262   1.361       .  A
C1261      C1375   1.477       .  S
N1262      C1823   1.360       .  A
C1263      N1822   1.360   1_545  A
C1263      C1323   1.476       .  S
N1264      C1265   1.361       .  A
C1265      N1826   1.362   1_545  A
C1265      C1288   1.478       .  S
N1266      C1825   1.362       .  A
O1267      C1283   1.272       .  A
O1267     Zn1273   2.008       .  S
C1268      C1290   1.464       .  S
C1268      O1284   1.268       .  A
C1268      O1281   1.279       .  A
O1269      C1282   1.281       .  A
O1269     Cd1276   2.119       .  S
O1270      C1288   1.282       .  A
O1270     Cd1279   2.101       .  S
O1271      C1285   1.270       .  A
O1271     Cd1275   2.025       .  S
O1272      C1283   1.271       .  A
O1272     Cd1275   2.051       .  S
Zn1273     O1284   1.984       .  S
Zn1273     O1286   1.956       .  S
Zn1273     O1278   1.900       .  S
O1274      C1285   1.284       .  A
O1274     Cd1279   2.125       .  S
Cd1275     O1277   2.039       .  S
Cd1275     O1278   1.958       .  S
Cd1276     O1280   2.100       .  S
Cd1276     O1289   2.090       .  S
Cd1276     O1278   1.997       .  S
O1277      C1287   1.268       .  A
O1278     Cd1279   1.994       .  S
Cd1279     O1281   2.104       .  S
O1280      C1287   1.278       .  A
C1282      O1286   1.268       .  A
C1283      C1397   1.453       .  S
C1287      C1953   1.461   1_545  S
C1288      O1289   1.281       .  A
C1290      N1291   1.354       .  A
C1290      N1295   1.361       .  A
N1291      C1292   1.359       .  A
C1292      N1293   1.356       .  A
C1292      C1346   1.473       .  S
N1293      C1294   1.364       .  A
C1294      N1295   1.359       .  A
C1294      C1527   1.472       .  S
C1296      N1297   1.358       .  A
C1296      N1301   1.360       .  A
N1297      C1298   1.363       .  A
C1298      N1299   1.357       .  A
N1299      C1300   1.356       .  A
C1300      N1301   1.351       .  A
C1300      C1347   1.460       .  S
O1302      C1318   1.272       .  A
O1302     Zn1308   2.010       .  S
C1303      C1943   1.463   1_545  S
C1303      O1319   1.268       .  A
C1303      O1316   1.279       .  A
O1304      C1317   1.281       .  A
O1304     Cd1311   2.117       .  S
O1305      C1323   1.282       .  A
O1305     Cd1314   2.099       .  S
O1306      C1320   1.269       .  A
O1306     Cd1310   2.025       .  S
O1307      C1318   1.271       .  A
O1307     Cd1310   2.051       .  S
Zn1308     O1319   1.982       .  S
Zn1308     O1321   1.958       .  S
Zn1308     O1313   1.898       .  S
O1309      C1320   1.284       .  A
O1309     Cd1314   2.125       .  S
Cd1310     O1312   2.038       .  S
Cd1310     O1313   1.957       .  S
Cd1311     O1315   2.096       .  S
Cd1311     O1324   2.087       .  S
Cd1311     O1313   1.996       .  S
O1312      C1322   1.268       .  A
O1313     Cd1314   1.991       .  S
Cd1314     O1316   2.103       .  S
O1315      C1322   1.278       .  A
C1317      O1321   1.268       .  A
C1318      C1395   1.454       .  S
C1323      O1324   1.280       .  A
C1325      N1326   1.360       .  A
C1325      N1330   1.354       .  A
N1326      C1607   1.359       .  A
C1327      N1606   1.359       .  A
C1327      N1608   1.365       .  A
N1328      C1607   1.365       .  A
N1328      C1329   1.357       .  A
C1329      N1330   1.360       .  A
C1329      C1351   1.474       .  S
O1331      C1347   1.276       .  A
O1331     Zn1337   2.036       .  S
C1332      C1381   1.462       .  S
C1332      O1348   1.273       .  A
C1332      O1345   1.275       .  A
O1333      C1346   1.282       .  A
O1333     Cd1340   2.122       .  S
O1334      C1352   1.269       .  A
O1334     Cd1343   2.020       .  S
O1335      C1349   1.275       .  A
O1335     Cd1339   2.078       .  S
O1336      C1347   1.271       .  A
O1336     Cd1339   2.050       .  S
Zn1337     O1348   2.016       .  S
Zn1337     O1350   1.969       .  S
Zn1337     O1342   1.919       .  S
O1338      C1349   1.271       .  A
O1338     Cd1343   2.060       .  S
Cd1339     O1341   2.022       .  S
Cd1339     O1342   1.971       .  S
Cd1340     O1344   2.130       .  S
Cd1340     O1353   2.127       .  S
Cd1340     O1342   2.019       .  S
O1341      C1351   1.269       .  A
O1342     Cd1343   1.970       .  S
Cd1343     O1345   2.073       .  S
O1344      C1351   1.284       .  A
C1346      O1350   1.269       .  A
C1349      C1391   1.461       .  S
C1352      C1385   1.473       .  S
C1352      O1353   1.283       .  A
O1354      C1370   1.272       .  A
O1354     Zn1360   2.010       .  S
C1355      O1371   1.268       .  A
C1355      O1368   1.279       .  A
O1356      C1369   1.282       .  A
O1356     Cd1363   2.122       .  S
O1357      C1375   1.282       .  A
O1357     Cd1366   2.098       .  S
O1358      C1372   1.269       .  A
O1358     Cd1362   2.025       .  S
O1359      C1370   1.271       .  A
O1359     Cd1362   2.048       .  S
Zn1360     O1371   1.982       .  S
Zn1360     O1373   1.958       .  S
Zn1360     O1365   1.900       .  S
O1361      C1372   1.284       .  A
O1361     Cd1366   2.125       .  S
Cd1362     O1364   2.037       .  S
Cd1362     O1365   1.958       .  S
Cd1363     O1367   2.103       .  S
Cd1363     O1376   2.091       .  S
Cd1363     O1365   1.998       .  S
O1364      C1374   1.268       .  A
O1365     Cd1366   1.994       .  S
Cd1366     O1368   2.106       .  S
O1367      C1374   1.279       .  A
C1369      O1373   1.268       .  A
C1370      C1399   1.453       .  S
C1374      C1377   1.461       .  S
C1375      O1376   1.281       .  A
C1377      N1378   1.363       .  A
C1377      N1382   1.359       .  A
N1378      C1379   1.358       .  A
C1379      N1380   1.359       .  A
N1380      C1381   1.351       .  A
C1381      N1382   1.358       .  A
C1383      N1384   1.353       .  A
C1383      N1388   1.360       .  A
C1383      C1863   1.463       .  S
N1384      C1385   1.359       .  A
C1385      N1386   1.357       .  A
N1386      C1667   1.365       .  A
C1387      N1666   1.365       .  A
C1387      N1668   1.359       .  A
N1388      C1667   1.359       .  A
C1389      N1390   1.359       .  A
C1389      N1394   1.358       .  A
N1390      C1391   1.351       .  A
C1391      N1392   1.357       .  A
N1392      C1393   1.358       .  A
C1393      N1394   1.363       .  A
C1393      C1847   1.461       .  S
C1395      N1396   1.355       .  A
C1395      N1400   1.355       .  A
N1396      C1397   1.355       .  A
C1397      N1398   1.354       .  A
N1398      C1399   1.354       .  A
C1399      N1400   1.355       .  A
C1401      N1962   1.361       .  A
C1401      N1406   1.361       .  A
C1401      C1497   1.477       .  S
N1402      C1961   1.361   1_545  A
C1403      N1404   1.361       .  A
C1403      C1532   1.477       .  S
N1404      C1965   1.361   1_545  A
C1405      N1964   1.361       .  A
C1405      C1439   1.477       .  S
C1407      N1408   1.355       .  A
C1407      N1412   1.355       .  A
C1407      C1420   1.453       .  S
N1408      C1409   1.354       .  A
C1409      N1410   1.354       .  A
C1409      C1513   1.452       .  S
N1410      C1411   1.354       .  A
C1411      N1412   1.355       .  A
C1411      C1478   1.453       .  S
C1413      N1414   1.359       .  A
C1413      N1418   1.363       .  A
C1413      C1493   1.463       .  S
N1414      C1415   1.358       .  A
C1415      N1416   1.352       .  A
C1415      C1470   1.464       .  S
C1417      C1649   1.470       .  S
O1419      C1435   1.269       .  A
O1419     Zn1425   1.988       .  S
C1420      O1436   1.272       .  A
C1420      O1433   1.271       .  A
O1421      C1434   1.283       .  A
O1421     Cd1428   2.121       .  S
O1422      C1440   1.267       .  A
O1422     Cd1431   2.032       .  S
O1423      C1437   1.282       .  A
O1423     Cd1427   2.122       .  S
O1424      C1435   1.278       .  A
O1424     Cd1427   2.094       .  S
Zn1425     O1436   2.009       .  S
Zn1425     O1438   1.971       .  S
Zn1425     O1430   1.904       .  S
O1426      C1437   1.268       .  A
O1426     Cd1431   2.014       .  S
Cd1427     O1429   2.092       .  S
Cd1427     O1430   1.994       .  S
Cd1428     O1432   2.096       .  S
Cd1428     O1441   2.105       .  S
Cd1428     O1430   1.993       .  S
O1429      C1439   1.281       .  A
O1430     Cd1431   1.951       .  S
Cd1431     O1433   2.050       .  S
O1432      C1439   1.282       .  A
C1434      C1607   1.471       .  S
C1434      O1438   1.269       .  A
C1435      C2004   1.461       .  S
C1437      C1669   1.469       .  S
C1440      O1441   1.279       .  A
C1442      C1562   1.468       .  S
N1443      C1444   1.362       .  A
C1444      N1445   1.358       .  A
C1444      C1995   1.461   1_545  S
N1445      C1446   1.357       .  A
C1446      N1447   1.352       .  A
C1446      C1455   1.462       .  S
C1448      N1449   1.352       .  A
C1448      N1453   1.360       .  A
N1449      C1450   1.358       .  A
C1450      N1451   1.357       .  A
C1450      C1474   1.471       .  S
N1451      C1452   1.365       .  A
C1452      N1453   1.359       .  A
C1452      C1652   1.471       .  S
O1454      C1470   1.273       .  A
O1454     Zn1460   2.021       .  S
C1455      O1471   1.277       .  A
C1455      O1468   1.272       .  A
O1456      C1469   1.282       .  A
O1456     Cd1463   2.116       .  S
O1457      C1475   1.269       .  A
O1457     Cd1466   2.024       .  S
O1458      C1472   1.272       .  A
O1458     Cd1462   2.063       .  S
O1459      C1470   1.275       .  A
O1459     Cd1462   2.074       .  S
Zn1460     O1471   2.038       .  S
Zn1460     O1473   1.973       .  S
Zn1460     O1465   1.920       .  S
O1461      C1472   1.276       .  A
O1461     Cd1466   2.081       .  S
Cd1462     O1464   2.023       .  S
Cd1462     O1465   1.970       .  S
Cd1463     O1467   2.120       .  S
Cd1463     O1476   2.122       .  S
Cd1463     O1465   2.019       .  S
O1464      C1474   1.269       .  A
O1465     Cd1466   1.972       .  S
Cd1466     O1468   2.055       .  S
O1467      C1474   1.282       .  A
C1469      C1510   1.472       .  S
C1469      O1473   1.269       .  A
C1472      C1537   1.463       .  S
C1475      C1504   1.472       .  S
C1475      O1476   1.282       .  A
O1477      C1493   1.269       .  A
O1477     Zn1483   1.988       .  S
C1478      O1494   1.272       .  A
C1478      O1491   1.271       .  A
O1479      C1492   1.283       .  A
O1479     Cd1486   2.120       .  S
O1480      C1498   1.267       .  A
O1480     Cd1489   2.032       .  S
O1481      C1495   1.283       .  A
O1481     Cd1485   2.126       .  S
O1482      C1493   1.278       .  A
O1482     Cd1485   2.099       .  S
Zn1483     O1494   2.008       .  S
Zn1483     O1496   1.970       .  S
Zn1483     O1488   1.905       .  S
O1484      C1495   1.268       .  A
O1484     Cd1489   2.014       .  S
Cd1485     O1487   2.094       .  S
Cd1485     O1488   1.995       .  S
Cd1486     O1490   2.095       .  S
Cd1486     O1499   2.107       .  S
Cd1486     O1488   1.994       .  S
O1487      C1497   1.281       .  A
O1488     Cd1489   1.951       .  S
Cd1489     O1491   2.050       .  S
O1490      C1497   1.282       .  A
C1492      C1667   1.471       .  S
C1492      O1496   1.269       .  A
C1495      C1659   1.470       .  S
C1498      C2062   1.462       .  S
C1498      O1499   1.279       .  A
C1500      N1501   1.359       .  A
C1500      N1505   1.365       .  A
C1500      C1600   1.471       .  S
N1501      C1502   1.360       .  A
C1502      N1503   1.353       .  A
C1502      C2058   1.462   1_545  S
N1503      C1504   1.358       .  A
C1504      N1505   1.357       .  A
C1506      N1507   1.361       .  A
C1506      N1511   1.354       .  A
C1506      C1533   1.462       .  S
N1507      C1508   1.359       .  A
C1508      N1509   1.364       .  A
C1508      C1565   1.471       .  S
N1509      C1510   1.356       .  A
C1510      N1511   1.359       .  A
O1512      C1528   1.269       .  A
O1512     Zn1518   1.990       .  S
C1513      O1529   1.272       .  A
C1513      O1526   1.270       .  A
O1514      C1527   1.283       .  A
O1514     Cd1521   2.120       .  S
O1515      C1533   1.267       .  A
O1515     Cd1524   2.033       .  S
O1516      C1530   1.282       .  A
O1516     Cd1520   2.123       .  S
O1517      C1528   1.278       .  A
O1517     Cd1520   2.098       .  S
Zn1518     O1529   2.009       .  S
Zn1518     O1531   1.971       .  S
Zn1518     O1523   1.905       .  S
O1519      C1530   1.268       .  A
O1519     Cd1524   2.012       .  S
Cd1520     O1522   2.094       .  S
Cd1520     O1523   1.995       .  S
Cd1521     O1525   2.095       .  S
Cd1521     O1534   2.107       .  S
Cd1521     O1523   1.995       .  S
O1522      C1532   1.281       .  A
O1523     Cd1524   1.952       .  S
Cd1524     O1526   2.047       .  S
O1525      C1532   1.282       .  A
C1527      O1531   1.269       .  A
C1530      C1576   1.468       .  S
C1533      O1534   1.279       .  A
C1535      N1536   1.359       .  A
C1535      N1540   1.363       .  A
N1536      C1537   1.358       .  A
C1537      N1538   1.352       .  A
C1539      C1597   1.469       .  S
C1541      N1542   1.361       .  A
C1541      C1655   1.477       .  S
N1542      C2103   1.360       .  A
C1543      N2102   1.360   1_545  A
C1543      C1603   1.476       .  S
N1544      C1545   1.361       .  A
C1545      N2106   1.362   1_545  A
C1545      C1568   1.478       .  S
N1546      C2105   1.362       .  A
O1547      C1563   1.272       .  A
O1547     Zn1553   2.008       .  S
C1548      C1570   1.464       .  S
C1548      O1564   1.268       .  A
C1548      O1561   1.279       .  A
O1549      C1562   1.281       .  A
O1549     Cd1556   2.119       .  S
O1550      C1568   1.282       .  A
O1550     Cd1559   2.101       .  S
O1551      C1565   1.270       .  A
O1551     Cd1555   2.025       .  S
O1552      C1563   1.271       .  A
O1552     Cd1555   2.051       .  S
Zn1553     O1564   1.984       .  S
Zn1553     O1566   1.956       .  S
Zn1553     O1558   1.900       .  S
O1554      C1565   1.284       .  A
O1554     Cd1559   2.125       .  S
Cd1555     O1557   2.039       .  S
Cd1555     O1558   1.958       .  S
Cd1556     O1560   2.100       .  S
Cd1556     O1569   2.090       .  S
Cd1556     O1558   1.997       .  S
O1557      C1567   1.268       .  A
O1558     Cd1559   1.994       .  S
Cd1559     O1561   2.104       .  S
O1560      C1567   1.278       .  A
C1562      O1566   1.268       .  A
C1563      C1677   1.453       .  S
C1567      C2233   1.461   1_545  S
C1568      O1569   1.281       .  A
C1570      N1571   1.354       .  A
C1570      N1575   1.361       .  A
N1571      C1572   1.359       .  A
C1572      N1573   1.357       .  A
C1572      C1626   1.473       .  S
N1573      C1574   1.364       .  A
C1574      N1575   1.359       .  A
C1576      N1577   1.358       .  A
C1576      N1581   1.360       .  A
N1577      C1578   1.363       .  A
C1578      N1579   1.357       .  A
N1579      C1580   1.356       .  A
C1580      N1581   1.351       .  A
C1580      C1627   1.460       .  S
O1582      C1598   1.272       .  A
O1582     Zn1588   2.010       .  S
C1583      C2223   1.463   1_545  S
C1583      O1599   1.268       .  A
C1583      O1596   1.279       .  A
O1584      C1597   1.281       .  A
O1584     Cd1591   2.117       .  S
O1585      C1603   1.282       .  A
O1585     Cd1594   2.099       .  S
O1586      C1600   1.269       .  A
O1586     Cd1590   2.025       .  S
O1587      C1598   1.271       .  A
O1587     Cd1590   2.051       .  S
Zn1588     O1599   1.982       .  S
Zn1588     O1601   1.958       .  S
Zn1588     O1593   1.898       .  S
O1589      C1600   1.284       .  A
O1589     Cd1594   2.125       .  S
Cd1590     O1592   2.038       .  S
Cd1590     O1593   1.957       .  S
Cd1591     O1595   2.096       .  S
Cd1591     O1604   2.087       .  S
Cd1591     O1593   1.996       .  S
O1592      C1602   1.268       .  A
O1593     Cd1594   1.991       .  S
Cd1594     O1596   2.103       .  S
O1595      C1602   1.278       .  A
C1597      O1601   1.268       .  A
C1598      C1675   1.454       .  S
C1603      O1604   1.280       .  A
C1605      N1606   1.360       .  A
C1605      N1610   1.354       .  A
N1608      C1609   1.357       .  A
C1609      N1610   1.360       .  A
C1609      C1631   1.474       .  S
O1611      C1627   1.276       .  A
O1611     Zn1617   2.036       .  S
C1612      C1661   1.462       .  S
C1612      O1628   1.273       .  A
C1612      O1625   1.275       .  A
O1613      C1626   1.282       .  A
O1613     Cd1620   2.122       .  S
O1614      C1632   1.269       .  A
O1614     Cd1623   2.020       .  S
O1615      C1629   1.275       .  A
O1615     Cd1619   2.078       .  S
O1616      C1627   1.271       .  A
O1616     Cd1619   2.050       .  S
Zn1617     O1628   2.016       .  S
Zn1617     O1630   1.969       .  S
Zn1617     O1622   1.919       .  S
O1618      C1629   1.271       .  A
O1618     Cd1623   2.060       .  S
Cd1619     O1621   2.022       .  S
Cd1619     O1622   1.971       .  S
Cd1620     O1624   2.130       .  S
Cd1620     O1633   2.127       .  S
Cd1620     O1622   2.019       .  S
O1621      C1631   1.269       .  A
O1622     Cd1623   1.970       .  S
Cd1623     O1625   2.073       .  S
O1624      C1631   1.284       .  A
C1626      O1630   1.269       .  A
C1629      C1671   1.461       .  S
C1632      C1665   1.473       .  S
C1632      O1633   1.283       .  A
O1634      C1650   1.272       .  A
O1634     Zn1640   2.010       .  S
C1635      O1651   1.268       .  A
C1635      O1648   1.279       .  A
O1636      C1649   1.282       .  A
O1636     Cd1643   2.122       .  S
O1637      C1655   1.282       .  A
O1637     Cd1646   2.098       .  S
O1638      C1652   1.269       .  A
O1638     Cd1642   2.025       .  S
O1639      C1650   1.271       .  A
O1639     Cd1642   2.048       .  S
Zn1640     O1651   1.982       .  S
Zn1640     O1653   1.958       .  S
Zn1640     O1645   1.900       .  S
O1641      C1652   1.284       .  A
O1641     Cd1646   2.125       .  S
Cd1642     O1644   2.037       .  S
Cd1642     O1645   1.958       .  S
Cd1643     O1647   2.103       .  S
Cd1643     O1656   2.091       .  S
Cd1643     O1645   1.998       .  S
O1644      C1654   1.268       .  A
O1645     Cd1646   1.994       .  S
Cd1646     O1648   2.106       .  S
O1647      C1654   1.279       .  A
C1649      O1653   1.268       .  A
C1650      C1679   1.453       .  S
C1654      C1657   1.461       .  S
C1655      O1656   1.281       .  A
C1657      N1658   1.363       .  A
C1657      N1662   1.359       .  A
N1658      C1659   1.358       .  A
C1659      N1660   1.359       .  A
N1660      C1661   1.351       .  A
C1661      N1662   1.357       .  A
C1663      N1664   1.353       .  A
C1663      N1668   1.360       .  A
C1663      C2143   1.463       .  S
N1664      C1665   1.359       .  A
C1665      N1666   1.357       .  A
C1669      N1670   1.359       .  A
C1669      N1674   1.358       .  A
N1670      C1671   1.351       .  A
C1671      N1672   1.357       .  A
N1672      C1673   1.358       .  A
C1673      N1674   1.363       .  A
C1673      C2127   1.461       .  S
C1675      N1676   1.355       .  A
C1675      N1680   1.355       .  A
N1676      C1677   1.355       .  A
C1677      N1678   1.354       .  A
N1678      C1679   1.354       .  A
C1679      N1680   1.355       .  A
C1681      N1686   1.361       .  A
C1681      C1777   1.477       .  S
C1683      N1684   1.361       .  A
C1683      C1812   1.477       .  S
C1685      C1719   1.477       .  S
C1687      N1688   1.355       .  A
C1687      N1692   1.355       .  A
C1687      C1700   1.453       .  S
N1688      C1689   1.354       .  A
C1689      N1690   1.354       .  A
C1689      C1793   1.452       .  S
N1690      C1691   1.354       .  A
C1691      N1692   1.355       .  A
C1691      C1758   1.453       .  S
C1693      N1694   1.359       .  A
C1693      N1698   1.363       .  A
C1693      C1773   1.463       .  S
N1694      C1695   1.358       .  A
C1695      N1696   1.352       .  A
C1695      C1750   1.464       .  S
N1696      C1977   1.359   1_554  A
C1697      N1976   1.359       .  A
C1697      N1978   1.358       .  A
C1697      C1929   1.470       .  S
N1698      C1977   1.358   1_554  A
O1699      C1715   1.269       .  A
O1699     Zn1705   1.988       .  S
C1700      O1716   1.272       .  A
C1700      O1713   1.271       .  A
O1701      C1714   1.283       .  A
O1701     Cd1708   2.121       .  S
O1702      C1720   1.267       .  A
O1702     Cd1711   2.032       .  S
O1703      C1717   1.282       .  A
O1703     Cd1707   2.122       .  S
O1704      C1715   1.278       .  A
O1704     Cd1707   2.094       .  S
Zn1705     O1716   2.009       .  S
Zn1705     O1718   1.971       .  S
Zn1705     O1710   1.904       .  S
O1706      C1717   1.268       .  A
O1706     Cd1711   2.014       .  S
Cd1707     O1709   2.092       .  S
Cd1707     O1710   1.994       .  S
Cd1708     O1712   2.096       .  S
Cd1708     O1721   2.105       .  S
Cd1708     O1710   1.993       .  S
O1709      C1719   1.281       .  A
O1710     Cd1711   1.951       .  S
Cd1711     O1713   2.050       .  S
O1712      C1719   1.282       .  A
C1714      C1887   1.471   1_554  S
C1714      O1718   1.269       .  A
C1717      C1949   1.469       .  S
C1720      O1721   1.279       .  A
C1722      N2003   1.358       .  A
C1722      N2007   1.359       .  A
C1722      C1842   1.468       .  S
N1723      C2002   1.358   1_554  A
N1723      C1724   1.362       .  A
C1724      N1725   1.358       .  A
N1725      C1726   1.357       .  A
C1726      N1727   1.352       .  A
C1726      C1735   1.462       .  S
N1727      C2002   1.359   1_554  A
C1728      N1729   1.352       .  A
C1728      N1733   1.360       .  A
N1729      C1730   1.358       .  A
C1730      N1731   1.357       .  A
C1730      C1754   1.471       .  S
N1731      C1732   1.365       .  A
C1732      N1733   1.359       .  A
C1732      C1932   1.471       .  S
O1734      C1750   1.273       .  A
O1734     Zn1740   2.021       .  S
C1735      O1751   1.277       .  A
C1735      O1748   1.271       .  A
O1736      C1749   1.282       .  A
O1736     Cd1743   2.116       .  S
O1737      C1755   1.269       .  A
O1737     Cd1746   2.024       .  S
O1738      C1752   1.272       .  A
O1738     Cd1742   2.063       .  S
O1739      C1750   1.275       .  A
O1739     Cd1742   2.074       .  S
Zn1740     O1751   2.038       .  S
Zn1740     O1753   1.973       .  S
Zn1740     O1745   1.920       .  S
O1741      C1752   1.276       .  A
O1741     Cd1746   2.081       .  S
Cd1742     O1744   2.023       .  S
Cd1742     O1745   1.970       .  S
Cd1743     O1747   2.120       .  S
Cd1743     O1756   2.122       .  S
Cd1743     O1745   2.019       .  S
O1744      C1754   1.269       .  A
O1745     Cd1746   1.972       .  S
Cd1746     O1748   2.055       .  S
O1747      C1754   1.282       .  A
C1749      C1790   1.472       .  S
C1749      O1753   1.269       .  A
C1752      C1817   1.463       .  S
C1755      C1784   1.472       .  S
C1755      O1756   1.282       .  A
O1757      C1773   1.269       .  A
O1757     Zn1763   1.988       .  S
C1758      O1774   1.272       .  A
C1758      O1771   1.271       .  A
O1759      C1772   1.283       .  A
O1759     Cd1766   2.120       .  S
O1760      C1778   1.267       .  A
O1760     Cd1769   2.032       .  S
O1761      C1775   1.283       .  A
O1761     Cd1765   2.126       .  S
O1762      C1773   1.278       .  A
O1762     Cd1765   2.100       .  S
Zn1763     O1774   2.008       .  S
Zn1763     O1776   1.970       .  S
Zn1763     O1768   1.905       .  S
O1764      C1775   1.268       .  A
O1764     Cd1769   2.014       .  S
Cd1765     O1767   2.094       .  S
Cd1765     O1768   1.995       .  S
Cd1766     O1770   2.095       .  S
Cd1766     O1779   2.107       .  S
Cd1766     O1768   1.994       .  S
O1767      C1777   1.281       .  A
O1768     Cd1769   1.951       .  S
Cd1769     O1771   2.050       .  S
O1770      C1777   1.282       .  A
C1772      C1947   1.471   1_554  S
C1772      O1776   1.269       .  A
C1775      C1939   1.470       .  S
C1778      O1779   1.279       .  A
C1780      N1781   1.359       .  A
C1780      N1785   1.365       .  A
C1780      C1880   1.471       .  S
N1781      C1782   1.360       .  A
C1782      N1783   1.353       .  A
N1783      C1784   1.358       .  A
C1784      N1785   1.357       .  A
C1786      N1787   1.361       .  A
C1786      N1791   1.354       .  A
C1786      C1813   1.462       .  S
N1787      C1788   1.359       .  A
C1788      N1789   1.364       .  A
C1788      C1845   1.471       .  S
N1789      C1790   1.356       .  A
C1790      N1791   1.359       .  A
O1792      C1808   1.269       .  A
O1792     Zn1798   1.990       .  S
C1793      O1809   1.272       .  A
C1793      O1806   1.270       .  A
O1794      C1807   1.283       .  A
O1794     Cd1801   2.120       .  S
O1795      C1813   1.267       .  A
O1795     Cd1804   2.033       .  S
O1796      C1810   1.282       .  A
O1796     Cd1800   2.123       .  S
O1797      C1808   1.278       .  A
O1797     Cd1800   2.098       .  S
Zn1798     O1809   2.009       .  S
Zn1798     O1811   1.971       .  S
Zn1798     O1803   1.905       .  S
O1799      C1810   1.268       .  A
O1799     Cd1804   2.012       .  S
Cd1800     O1802   2.094       .  S
Cd1800     O1803   1.995       .  S
Cd1801     O1805   2.095       .  S
Cd1801     O1814   2.107       .  S
Cd1801     O1803   1.995       .  S
O1802      C1812   1.281       .  A
O1803     Cd1804   1.952       .  S
Cd1804     O1806   2.047       .  S
O1805      C1812   1.282       .  A
C1807      C2134   1.472   1_554  S
C1807      O1811   1.269       .  A
C1810      C1856   1.468       .  S
C1813      O1814   1.279       .  A
C1815      N1816   1.359       .  A
C1815      N1820   1.363       .  A
N1816      C1817   1.358       .  A
C1817      N1818   1.352       .  A
N1818      C2099   1.359   1_554  A
C1819      N2098   1.359       .  A
C1819      N2100   1.358       .  A
C1819      C1877   1.469       .  S
N1820      C2099   1.358   1_554  A
C1821      N1822   1.361       .  A
C1821      C1935   1.477       .  S
C1823      C1883   1.476       .  S
N1824      C1825   1.361       .  A
C1825      C1848   1.478       .  S
O1827      C1843   1.272       .  A
O1827     Zn1833   2.008       .  S
C1828      C1850   1.464       .  S
C1828      O1844   1.268       .  A
C1828      O1841   1.279       .  A
O1829      C1842   1.281       .  A
O1829     Cd1836   2.119       .  S
O1830      C1848   1.282       .  A
O1830     Cd1839   2.101       .  S
O1831      C1845   1.270       .  A
O1831     Cd1835   2.025       .  S
O1832      C1843   1.271       .  A
O1832     Cd1835   2.051       .  S
Zn1833     O1844   1.984       .  S
Zn1833     O1846   1.956       .  S
Zn1833     O1838   1.900       .  S
O1834      C1845   1.284       .  A
O1834     Cd1839   2.125       .  S
Cd1835     O1837   2.039       .  S
Cd1835     O1838   1.958       .  S
Cd1836     O1840   2.100       .  S
Cd1836     O1849   2.090       .  S
Cd1836     O1838   1.997       .  S
O1837      C1847   1.268       .  A
O1838     Cd1839   1.994       .  S
Cd1839     O1841   2.104       .  S
O1840      C1847   1.278       .  A
C1842      O1846   1.268       .  A
C1843      C1957   1.453       .  S
C1848      O1849   1.281       .  A
C1850      N1851   1.354       .  A
C1850      N1855   1.361       .  A
N1851      C1852   1.359       .  A
C1852      N1853   1.357       .  A
C1852      C1906   1.473       .  S
N1853      C1854   1.364       .  A
C1854      N1855   1.359       .  A
C1854      C2087   1.472       .  S
C1856      N1857   1.358       .  A
C1856      N1861   1.360       .  A
N1857      C1858   1.363       .  A
C1858      N1859   1.357       .  A
N1859      C1860   1.356       .  A
C1860      N1861   1.351       .  A
C1860      C1907   1.460       .  S
O1862      C1878   1.272       .  A
O1862     Zn1868   2.010       .  S
C1863      O1879   1.268       .  A
C1863      O1876   1.279       .  A
O1864      C1877   1.281       .  A
O1864     Cd1871   2.117       .  S
O1865      C1883   1.282       .  A
O1865     Cd1874   2.099       .  S
O1866      C1880   1.269       .  A
O1866     Cd1870   2.025       .  S
O1867      C1878   1.271       .  A
O1867     Cd1870   2.051       .  S
Zn1868     O1879   1.982       .  S
Zn1868     O1881   1.958       .  S
Zn1868     O1873   1.898       .  S
O1869      C1880   1.284       .  A
O1869     Cd1874   2.125       .  S
Cd1870     O1872   2.038       .  S
Cd1870     O1873   1.957       .  S
Cd1871     O1875   2.096       .  S
Cd1871     O1884   2.087       .  S
Cd1871     O1873   1.996       .  S
O1872      C1882   1.268       .  A
O1873     Cd1874   1.991       .  S
Cd1874     O1876   2.103       .  S
O1875      C1882   1.278       .  A
C1877      O1881   1.268       .  A
C1878      C1955   1.454       .  S
C1883      O1884   1.280       .  A
C1885      N1886   1.360       .  A
C1885      N1890   1.354       .  A
N1886      C2167   1.359       .  A
C1887      N2166   1.359       .  A
C1887      N2168   1.365       .  A
N1888      C2167   1.365       .  A
N1888      C1889   1.357       .  A
C1889      N1890   1.360       .  A
C1889      C1911   1.474       .  S
O1891      C1907   1.276       .  A
O1891     Zn1897   2.036       .  S
C1892      C1941   1.462       .  S
C1892      O1908   1.273       .  A
C1892      O1905   1.275       .  A
O1893      C1906   1.282       .  A
O1893     Cd1900   2.122       .  S
O1894      C1912   1.269       .  A
O1894     Cd1903   2.020       .  S
O1895      C1909   1.275       .  A
O1895     Cd1899   2.078       .  S
O1896      C1907   1.271       .  A
O1896     Cd1899   2.050       .  S
Zn1897     O1908   2.016       .  S
Zn1897     O1910   1.969       .  S
Zn1897     O1902   1.919       .  S
O1898      C1909   1.271       .  A
O1898     Cd1903   2.060       .  S
Cd1899     O1901   2.022       .  S
Cd1899     O1902   1.971       .  S
Cd1900     O1904   2.130       .  S
Cd1900     O1913   2.127       .  S
Cd1900     O1902   2.019       .  S
O1901      C1911   1.269       .  A
O1902     Cd1903   1.970       .  S
Cd1903     O1905   2.073       .  S
O1904      C1911   1.284       .  A
C1906      O1910   1.269       .  A
C1909      C1951   1.461       .  S
C1912      C1945   1.473       .  S
C1912      O1913   1.283       .  A
O1914      C1930   1.272       .  A
O1914     Zn1920   2.010       .  S
C1915      O1931   1.268       .  A
C1915      O1928   1.279       .  A
O1916      C1929   1.282       .  A
O1916     Cd1923   2.122       .  S
O1917      C1935   1.282       .  A
O1917     Cd1926   2.098       .  S
O1918      C1932   1.269       .  A
O1918     Cd1922   2.025       .  S
O1919      C1930   1.271       .  A
O1919     Cd1922   2.048       .  S
Zn1920     O1931   1.982       .  S
Zn1920     O1933   1.958       .  S
Zn1920     O1925   1.900       .  S
O1921      C1932   1.284       .  A
O1921     Cd1926   2.125       .  S
Cd1922     O1924   2.037       .  S
Cd1922     O1925   1.958       .  S
Cd1923     O1927   2.103       .  S
Cd1923     O1936   2.091       .  S
Cd1923     O1925   1.998       .  S
O1924      C1934   1.268       .  A
O1925     Cd1926   1.994       .  S
Cd1926     O1928   2.106       .  S
O1927      C1934   1.279       .  A
C1929      O1933   1.268       .  A
C1930      C1959   1.453       .  S
C1934      C1937   1.461       .  S
C1935      O1936   1.281       .  A
C1937      N1938   1.363       .  A
C1937      N1942   1.359       .  A
N1938      C1939   1.358       .  A
C1939      N1940   1.359       .  A
N1940      C1941   1.351       .  A
C1941      N1942   1.357       .  A
C1943      N1944   1.353       .  A
C1943      N1948   1.360       .  A
N1944      C1945   1.359       .  A
C1945      N1946   1.357       .  A
N1946      C2227   1.365       .  A
C1947      N2226   1.365       .  A
C1947      N2228   1.359       .  A
N1948      C2227   1.359       .  A
C1949      N1950   1.359       .  A
C1949      N1954   1.358       .  A
N1950      C1951   1.351       .  A
C1951      N1952   1.357       .  A
N1952      C1953   1.358       .  A
C1953      N1954   1.363       .  A
C1955      N1956   1.355       .  A
C1955      N1960   1.355       .  A
N1956      C1957   1.355       .  A
C1957      N1958   1.354       .  A
N1958      C1959   1.354       .  A
C1959      N1960   1.355       .  A
C1961      N1966   1.361       .  A
C1961      C2057   1.477       .  S
C1963      N1964   1.361       .  A
C1963      C2092   1.477       .  S
C1965      C1999   1.477       .  S
C1967      N1968   1.355       .  A
C1967      N1972   1.355       .  A
C1967      C1980   1.453       .  S
N1968      C1969   1.354       .  A
C1969      N1970   1.354       .  A
C1969      C2073   1.452       .  S
N1970      C1971   1.354       .  A
C1971      N1972   1.355       .  A
C1971      C2038   1.453       .  S
C1973      N1974   1.359       .  A
C1973      N1978   1.363       .  A
C1973      C2053   1.463       .  S
N1974      C1975   1.358       .  A
C1975      N1976   1.352       .  A
C1975      C2030   1.464       .  S
C1977      C2209   1.470       .  S
O1979      C1995   1.269       .  A
O1979     Zn1985   1.988       .  S
C1980      O1996   1.272       .  A
C1980      O1993   1.271       .  A
O1981      C1994   1.283       .  A
O1981     Cd1988   2.121       .  S
O1982      C2000   1.267       .  A
O1982     Cd1991   2.032       .  S
O1983      C1997   1.282       .  A
O1983     Cd1987   2.122       .  S
O1984      C1995   1.278       .  A
O1984     Cd1987   2.094       .  S
Zn1985     O1996   2.009       .  S
Zn1985     O1998   1.971       .  S
Zn1985     O1990   1.904       .  S
O1986      C1997   1.268       .  A
O1986     Cd1991   2.014       .  S
Cd1987     O1989   2.092       .  S
Cd1987     O1990   1.994       .  S
Cd1988     O1992   2.096       .  S
Cd1988     O2001   2.105       .  S
Cd1988     O1990   1.993       .  S
O1989      C1999   1.281       .  A
O1990     Cd1991   1.951       .  S
Cd1991     O1993   2.050       .  S
O1992      C1999   1.282       .  A
C1994      C2167   1.471       .  S
C1994      O1998   1.269       .  A
C1997      C2229   1.469       .  S
C2000      O2001   1.279       .  A
C2002      C2122   1.468       .  S
N2003      C2004   1.362       .  A
C2004      N2005   1.358       .  A
N2005      C2006   1.357       .  A
C2006      N2007   1.352       .  A
C2006      C2015   1.462       .  S
C2008      N2009   1.352       .  A
C2008      N2013   1.360       .  A
N2009      C2010   1.358       .  A
C2010      N2011   1.357       .  A
C2010      C2034   1.471       .  S
N2011      C2012   1.365       .  A
C2012      N2013   1.359       .  A
C2012      C2212   1.471       .  S
O2014      C2030   1.273       .  A
O2014     Zn2020   2.021       .  S
C2015      O2031   1.277       .  A
C2015      O2028   1.272       .  A
O2016      C2029   1.282       .  A
O2016     Cd2023   2.116       .  S
O2017      C2035   1.269       .  A
O2017     Cd2026   2.024       .  S
O2018      C2032   1.272       .  A
O2018     Cd2022   2.063       .  S
O2019      C2030   1.275       .  A
O2019     Cd2022   2.074       .  S
Zn2020     O2031   2.038       .  S
Zn2020     O2033   1.973       .  S
Zn2020     O2025   1.920       .  S
O2021      C2032   1.276       .  A
O2021     Cd2026   2.081       .  S
Cd2022     O2024   2.023       .  S
Cd2022     O2025   1.970       .  S
Cd2023     O2027   2.120       .  S
Cd2023     O2036   2.122       .  S
Cd2023     O2025   2.019       .  S
O2024      C2034   1.269       .  A
O2025     Cd2026   1.972       .  S
Cd2026     O2028   2.055       .  S
O2027      C2034   1.282       .  A
C2029      C2070   1.472       .  S
C2029      O2033   1.269       .  A
C2032      C2097   1.463       .  S
C2035      C2064   1.472       .  S
C2035      O2036   1.282       .  A
O2037      C2053   1.269       .  A
O2037     Zn2043   1.988       .  S
C2038      O2054   1.272       .  A
C2038      O2051   1.271       .  A
O2039      C2052   1.283       .  A
O2039     Cd2046   2.120       .  S
O2040      C2058   1.267       .  A
O2040     Cd2049   2.032       .  S
O2041      C2055   1.283       .  A
O2041     Cd2045   2.126       .  S
O2042      C2053   1.278       .  A
O2042     Cd2045   2.099       .  S
Zn2043     O2054   2.008       .  S
Zn2043     O2056   1.970       .  S
Zn2043     O2048   1.905       .  S
O2044      C2055   1.268       .  A
O2044     Cd2049   2.014       .  S
Cd2045     O2047   2.094       .  S
Cd2045     O2048   1.995       .  S
Cd2046     O2050   2.095       .  S
Cd2046     O2059   2.107       .  S
Cd2046     O2048   1.994       .  S
O2047      C2057   1.281       .  A
O2048     Cd2049   1.951       .  S
Cd2049     O2051   2.050       .  S
O2050      C2057   1.282       .  A
C2052      C2227   1.471       .  S
C2052      O2056   1.269       .  A
C2055      C2219   1.470       .  S
C2058      O2059   1.279       .  A
C2060      N2061   1.359       .  A
C2060      N2065   1.365       .  A
C2060      C2160   1.471       .  S
N2061      C2062   1.360       .  A
C2062      N2063   1.353       .  A
N2063      C2064   1.358       .  A
C2064      N2065   1.357       .  A
C2066      N2067   1.361       .  A
C2066      N2071   1.354       .  A
C2066      C2093   1.462       .  S
N2067      C2068   1.359       .  A
C2068      N2069   1.364       .  A
C2068      C2125   1.471       .  S
N2069      C2070   1.356       .  A
C2070      N2071   1.359       .  A
O2072      C2088   1.269       .  A
O2072     Zn2078   1.990       .  S
C2073      O2089   1.272       .  A
C2073      O2086   1.270       .  A
O2074      C2087   1.283       .  A
O2074     Cd2081   2.120       .  S
O2075      C2093   1.267       .  A
O2075     Cd2084   2.033       .  S
O2076      C2090   1.282       .  A
O2076     Cd2080   2.123       .  S
O2077      C2088   1.278       .  A
O2077     Cd2080   2.098       .  S
Zn2078     O2089   2.009       .  S
Zn2078     O2091   1.971       .  S
Zn2078     O2083   1.905       .  S
O2079      C2090   1.268       .  A
O2079     Cd2084   2.012       .  S
Cd2080     O2082   2.094       .  S
Cd2080     O2083   1.995       .  S
Cd2081     O2085   2.095       .  S
Cd2081     O2094   2.107       .  S
Cd2081     O2083   1.995       .  S
O2082      C2092   1.281       .  A
O2083     Cd2084   1.952       .  S
Cd2084     O2086   2.047       .  S
O2085      C2092   1.282       .  A
C2087      O2091   1.269       .  A
C2090      C2136   1.468       .  S
C2093      O2094   1.279       .  A
C2095      N2096   1.359       .  A
C2095      N2100   1.363       .  A
N2096      C2097   1.358       .  A
C2097      N2098   1.352       .  A
C2099      C2157   1.469       .  S
C2101      N2102   1.361       .  A
C2101      C2215   1.477       .  S
C2103      C2163   1.476       .  S
N2104      C2105   1.361       .  A
C2105      C2128   1.478       .  S
O2107      C2123   1.272       .  A
O2107     Zn2113   2.008       .  S
C2108      C2130   1.464       .  S
C2108      O2124   1.268       .  A
C2108      O2121   1.279       .  A
O2109      C2122   1.281       .  A
O2109     Cd2116   2.119       .  S
O2110      C2128   1.282       .  A
O2110     Cd2119   2.101       .  S
O2111      C2125   1.270       .  A
O2111     Cd2115   2.025       .  S
O2112      C2123   1.271       .  A
O2112     Cd2115   2.051       .  S
Zn2113     O2124   1.984       .  S
Zn2113     O2126   1.956       .  S
Zn2113     O2118   1.900       .  S
O2114      C2125   1.284       .  A
O2114     Cd2119   2.125       .  S
Cd2115     O2117   2.039       .  S
Cd2115     O2118   1.958       .  S
Cd2116     O2120   2.100       .  S
Cd2116     O2129   2.090       .  S
Cd2116     O2118   1.997       .  S
O2117      C2127   1.268       .  A
O2118     Cd2119   1.994       .  S
Cd2119     O2121   2.104       .  S
O2120      C2127   1.278       .  A
C2122      O2126   1.268       .  A
C2123      C2237   1.453       .  S
C2128      O2129   1.281       .  A
C2130      N2131   1.354       .  A
C2130      N2135   1.361       .  A
N2131      C2132   1.359       .  A
C2132      N2133   1.357       .  A
C2132      C2186   1.473       .  S
N2133      C2134   1.364       .  A
C2134      N2135   1.359       .  A
C2136      N2137   1.358       .  A
C2136      N2141   1.360       .  A
N2137      C2138   1.363       .  A
C2138      N2139   1.357       .  A
N2139      C2140   1.356       .  A
C2140      N2141   1.351       .  A
C2140      C2187   1.460       .  S
O2142      C2158   1.272       .  A
O2142     Zn2148   2.010       .  S
C2143      O2159   1.268       .  A
C2143      O2156   1.279       .  A
O2144      C2157   1.281       .  A
O2144     Cd2151   2.117       .  S
O2145      C2163   1.282       .  A
O2145     Cd2154   2.099       .  S
O2146      C2160   1.269       .  A
O2146     Cd2150   2.025       .  S
O2147      C2158   1.271       .  A
O2147     Cd2150   2.051       .  S
Zn2148     O2159   1.982       .  S
Zn2148     O2161   1.958       .  S
Zn2148     O2153   1.898       .  S
O2149      C2160   1.284       .  A
O2149     Cd2154   2.125       .  S
Cd2150     O2152   2.038       .  S
Cd2150     O2153   1.957       .  S
Cd2151     O2155   2.096       .  S
Cd2151     O2164   2.087       .  S
Cd2151     O2153   1.996       .  S
O2152      C2162   1.268       .  A
O2153     Cd2154   1.991       .  S
Cd2154     O2156   2.103       .  S
O2155      C2162   1.278       .  A
C2157      O2161   1.268       .  A
C2158      C2235   1.454       .  S
C2163      O2164   1.280       .  A
C2165      N2166   1.360       .  A
C2165      N2170   1.354       .  A
N2168      C2169   1.357       .  A
C2169      N2170   1.360       .  A
C2169      C2191   1.474       .  S
O2171      C2187   1.276       .  A
O2171     Zn2177   2.036       .  S
C2172      C2221   1.462       .  S
C2172      O2188   1.273       .  A
C2172      O2185   1.275       .  A
O2173      C2186   1.282       .  A
O2173     Cd2180   2.122       .  S
O2174      C2192   1.269       .  A
O2174     Cd2183   2.020       .  S
O2175      C2189   1.275       .  A
O2175     Cd2179   2.078       .  S
O2176      C2187   1.271       .  A
O2176     Cd2179   2.050       .  S
Zn2177     O2188   2.016       .  S
Zn2177     O2190   1.969       .  S
Zn2177     O2182   1.919       .  S
O2178      C2189   1.271       .  A
O2178     Cd2183   2.060       .  S
Cd2179     O2181   2.022       .  S
Cd2179     O2182   1.971       .  S
Cd2180     O2184   2.130       .  S
Cd2180     O2193   2.127       .  S
Cd2180     O2182   2.019       .  S
O2181      C2191   1.269       .  A
O2182     Cd2183   1.970       .  S
Cd2183     O2185   2.073       .  S
O2184      C2191   1.284       .  A
C2186      O2190   1.269       .  A
C2189      C2231   1.461       .  S
C2192      C2225   1.473       .  S
C2192      O2193   1.283       .  A
O2194      C2210   1.272       .  A
O2194     Zn2200   2.010       .  S
C2195      O2211   1.268       .  A
C2195      O2208   1.279       .  A
O2196      C2209   1.282       .  A
O2196     Cd2203   2.122       .  S
O2197      C2215   1.282       .  A
O2197     Cd2206   2.098       .  S
O2198      C2212   1.269       .  A
O2198     Cd2202   2.025       .  S
O2199      C2210   1.271       .  A
O2199     Cd2202   2.048       .  S
Zn2200     O2211   1.982       .  S
Zn2200     O2213   1.958       .  S
Zn2200     O2205   1.900       .  S
O2201      C2212   1.284       .  A
O2201     Cd2206   2.125       .  S
Cd2202     O2204   2.037       .  S
Cd2202     O2205   1.958       .  S
Cd2203     O2207   2.103       .  S
Cd2203     O2216   2.091       .  S
Cd2203     O2205   1.998       .  S
O2204      C2214   1.268       .  A
O2205     Cd2206   1.994       .  S
Cd2206     O2208   2.106       .  S
O2207      C2214   1.279       .  A
C2209      O2213   1.268       .  A
C2210      C2239   1.453       .  S
C2214      C2217   1.461       .  S
C2215      O2216   1.281       .  A
C2217      N2218   1.363       .  A
C2217      N2222   1.359       .  A
N2218      C2219   1.358       .  A
C2219      N2220   1.359       .  A
N2220      C2221   1.351       .  A
C2221      N2222   1.358       .  A
C2223      N2224   1.353       .  A
C2223      N2228   1.360       .  A
N2224      C2225   1.359       .  A
C2225      N2226   1.357       .  A
C2229      N2230   1.359       .  A
C2229      N2234   1.358       .  A
N2230      C2231   1.351       .  A
C2231      N2232   1.357       .  A
N2232      C2233   1.358       .  A
C2233      N2234   1.363       .  A
C2235      N2236   1.355       .  A
C2235      N2240   1.355       .  A
N2236      C2237   1.355       .  A
C2237      N2238   1.354       .  A
N2238      C2239   1.354       .  A
C2239      N2240   1.355       .  A
