geometry optimzed in LAMMPS
_audit_creation_date              2020-11-30 
_audit_creation_method            'lammps2cif' 
_symmetry_space_group_name_H-M    'P1' 
_symmetry_Int_Tables_number       1 
_symmetry_cell_setting            triclinic 
loop_ 
_symmetry_equiv_pos_as_xyz 
  x,y,z 
_cell_length_a                    29.67572352 
_cell_length_b                    29.685374676703322 
_cell_length_c                    88.99368880777152 
_cell_angle_alpha                 89.9422036157531 
_cell_angle_beta                  89.99556514668122 
_cell_angle_gamma                 119.97222452945412 
loop_ 
_atom_site_label 
_atom_site_type_symbol 
_atom_site_fract_x 
_atom_site_fract_y 
_atom_site_fract_z 
_atom_site_charge 
O1          O  0.03356841  0.01635055  0.22925499    -0.73800
O2          O  0.03088331  0.02141994  0.27210727    -0.73800
O3          O  0.03095005  0.95344688  0.25175166    -0.73900
O4          O  0.03256426  0.08355392  0.24967449    -0.73900
O5          O  0.94580226  0.04051561  0.24976202    -0.73800
O6          O  0.94426485  0.91101432  0.25073346    -0.73800
O7          O  0.94411558  0.97642820  0.27185983    -0.73800
O8          O  0.94687885  0.97525054  0.22861933    -0.73900
Ni9        Ni  0.03506370  0.02016147  0.25070584     1.25400
Ni10       Ni  0.94214936  0.97429601  0.25022270     1.25400
C11         C  0.99092740  0.99547206  0.22184977     0.88400
C12         C  0.98730971  0.99961535  0.27905153     0.88300
C13         C  0.98719913  0.91080051  0.25151311     0.88400
C14         C  0.98923104  0.08330156  0.24953092     0.88500
O15         O  0.96398859  0.48611958  0.22942822    -0.73800
O16         O  0.97199280  0.48580184  0.27253579    -0.73800
O17         O  0.96652342  0.55014824  0.25169187    -0.73900
O18         O  0.96936864  0.42237009  0.25030048    -0.73900
O19         O  0.05602411  0.46725095  0.24916333    -0.73800
O20         O  0.05312216  0.59466029  0.25017386    -0.73800
O21         O  0.05857939  0.53200239  0.27110131    -0.73800
O22         O  0.05059775  0.53055144  0.22808271    -0.73900
Ni23       Ni  0.96483541  0.48453676  0.25102790     1.25400
Ni24       Ni  0.05761046  0.53264266  0.24956552     1.25400
C25         C  0.00599694  0.50809069  0.22165704     0.88400
C26         C  0.01672831  0.50919472  0.27888606     0.88300
C27         C  0.00953280  0.59347577  0.25125339     0.88400
C28         C  0.01320856  0.42382771  0.24959681     0.88500
O29         O  0.51325316  0.01379547  0.27250012    -0.73800
O30         O  0.52438943  0.01856093  0.22957314    -0.73800
O31         O  0.51860142  0.08043869  0.25090844    -0.73900
O32         O  0.51904728  0.95160184  0.25113999    -0.73900
O33         O  0.43263684  0.90798022  0.24891316    -0.73800
O34         O  0.43198905  0.03703027  0.24952502    -0.73800
O35         O  0.43789191  0.97620137  0.22768433    -0.73800
O36         O  0.42671584  0.96804105  0.27070131    -0.73900
Ni37       Ni  0.52186100  0.01761796  0.25109855     1.25400
Ni38       Ni  0.42918455  0.97082737  0.24913521     1.25400
C39         C  0.46823413  0.98959484  0.27864581     0.88400
C40         C  0.48304562  0.99830392  0.22155380     0.88300
C41         C  0.47528266  0.08001713  0.25022246     0.88400
C42         C  0.47598175  0.90859468  0.25003066     0.88500
O43         O  0.46260451  0.48871798  0.22951246    -0.73800
O44         O  0.47074907  0.49029211  0.27249035    -0.73800
O45         O  0.46616062  0.55392976  0.25129407    -0.73900
O46         O  0.46669354  0.42520929  0.25064674    -0.73900
O47         O  0.55341035  0.46862865  0.24988369    -0.73800
O48         O  0.55264999  0.59768978  0.24930083    -0.73800
O49         O  0.55736922  0.53663041  0.27102759    -0.73800
O50         O  0.54923754  0.53042900  0.22811946    -0.73900
Ni51       Ni  0.46347129  0.48801585  0.25103957     1.25400
Ni52       Ni  0.55627887  0.53487326  0.24953321     1.25400
C53         C  0.50458969  0.50894126  0.22175589     0.88400
C54         C  0.51550039  0.51418913  0.27879148     0.88300
C55         C  0.50920946  0.59698351  0.25029178     0.88400
C56         C  0.51003488  0.42562669  0.25024442     0.88500
O57         O  0.95073374  0.94857650  0.39656309    -0.73800
O58         O  0.95478249  0.95961459  0.43954366    -0.73800
O59         O  0.88650777  0.94973404  0.41784618    -0.73900
O60         O  0.01934672  0.95817596  0.41821883    -0.73900
O61         O  0.05872885  0.04463871  0.41659624    -0.73800
O62         O  0.92546513  0.03607420  0.41581823    -0.73800
O63         O  0.99354198  0.04596782  0.43764721    -0.73800
O64         O  0.99140400  0.03508935  0.39475683    -0.73900
Ni65       Ni  0.95150141  0.95095980  0.41811940     1.25400
Ni66       Ni  0.99362057  0.04353132  0.41613756     1.25400
C67         C  0.97069360  0.99011824  0.38861220     0.88400
C68         C  0.97472218  0.00463324  0.44565861     0.88300
C69         C  0.88407092  0.99143556  0.41673663     0.88400
C70         C  0.06086198  0.00267754  0.41743857     0.88500
O71         O  0.97470298  0.53836736  0.41642373    -0.73800
O72         O  0.10693552  0.54537971  0.41705374    -0.73800
O73         O  0.04045109  0.53873554  0.39513434    -0.73900
O74         O  0.04148509  0.54478121  0.43822246    -0.73900
O75         O  0.00267549  0.45824889  0.43918350    -0.73800
O76         O  0.99878705  0.45207315  0.39619551    -0.73800
O77         O  0.06724780  0.45874877  0.41762092    -0.73800
O78         O  0.93475367  0.45182681  0.41778963    -0.73900
Ni79       Ni  0.04228220  0.54489985  0.41665598     1.25400
Ni80       Ni  0.99948775  0.45213663  0.41773155     1.25400
C81         C  0.93297893  0.49400450  0.41707402     0.88400
C82         C  0.10889506  0.50330174  0.41749197     0.88300
C83         C  0.01886373  0.49434895  0.38858870     0.88400
C84         C  0.02270676  0.50242194  0.44578095     0.88500
O85         O  0.49264696  0.03860496  0.39593598    -0.73800
O86         O  0.48747535  0.03211583  0.43891422    -0.73800
O87         O  0.55572826  0.03831978  0.41773808    -0.73900
O88         O  0.42417174  0.03263735  0.41709652    -0.73900
O89         O  0.38372397  0.94598552  0.41641458    -0.73800
O90         O  0.51574872  0.95177896  0.41642955    -0.73800
O91         O  0.44801855  0.94555811  0.43794149    -0.73800
O92         O  0.45101659  0.95195849  0.39486646    -0.73900
Ni93       Ni  0.49139842  0.03846747  0.41746079     1.25400
Ni94       Ni  0.44818286  0.94569496  0.41637220     1.25400
C95         C  0.47261274  0.99638539  0.38832649     0.88400
C96         C  0.46711551  0.98783517  0.44550866     0.88300
C97         C  0.55749651  0.99616116  0.41711465     0.88400
C98         C  0.38228753  0.98839463  0.41672730     0.88500
O99         O  0.54124869  0.54245576  0.39456425    -0.73800
O100        O  0.54508668  0.55046755  0.43747395    -0.73800
O101        O  0.60929325  0.54991836  0.41600021    -0.73900
O102        O  0.47649596  0.54247327  0.41611274    -0.73900
O103        O  0.43715080  0.45594676  0.41741129    -0.73800
O104        O  0.56952715  0.46338074  0.41732660    -0.73800
O105        O  0.50524856  0.46395578  0.43894093    -0.73800
O106        O  0.50116837  0.45588875  0.39586254    -0.73900
Ni107      Ni  0.54442238  0.54940525  0.41598165     1.25400
Ni108      Ni  0.50192227  0.45670741  0.41743818     1.25400
C109        C  0.52041353  0.49794278  0.38814561     0.88400
C110        C  0.52578328  0.50867433  0.44527934     0.88300
C111        C  0.61117720  0.50778034  0.41665856     0.88400
C112        C  0.43497540  0.49787847  0.41679312     0.88500
O113        O  0.02806206  0.01154267  0.06205525    -0.73800
O114        O  0.02446711  0.00946985  0.10523647    -0.73800
O115        O  0.02481741  0.94533498  0.08348004    -0.73900
O116        O  0.02785344  0.07613900  0.08372821    -0.73900
O117        O  0.94110584  0.03399500  0.08340976    -0.73800
O118        O  0.93810807  0.90364068  0.08275253    -0.73800
O119        O  0.93775180  0.96720166  0.10453782    -0.73800
O120        O  0.94134733  0.97105225  0.06156913    -0.73900
Ni121      Ni  0.02945588  0.01214900  0.08365202     1.25400
Ni122      Ni  0.93655697  0.96745162  0.08304240     1.25400
C123        C  0.98516543  0.99179129  0.05473792     0.88400
C124        C  0.98034955  0.98809032  0.11197712     0.88300
C125        C  0.98093341  0.90298905  0.08297740     0.88400
C126        C  0.98480780  0.07646828  0.08369459     0.88500
O127        O  0.05559078  0.52946043  0.10352359    -0.73800
O128        O  0.04276506  0.51729992  0.06050412    -0.73800
O129        O  0.04824709  0.58723118  0.08104163    -0.73900
O130        O  0.05081814  0.45983430  0.08291303    -0.73900
O131        O  0.96426613  0.41547787  0.08460577    -0.73800
O132        O  0.96192272  0.54365381  0.08357111    -0.73800
O133        O  0.95632120  0.47505731  0.06265023    -0.73800
O134        O  0.96916621  0.48412919  0.10554087    -0.73900
Ni135      Ni  0.05242375  0.52501005  0.08192005     1.25400
Ni136      Ni  0.95983957  0.47794335  0.08417583     1.25400
C137        C  0.01428725  0.50854448  0.11161545     0.88400
C138        C  0.99739035  0.49480174  0.05450964     0.88300
C139        C  0.00487931  0.58656111  0.08202194     0.88400
C140        C  0.00804297  0.41666462  0.08398653     0.88500
O141        O  0.52909799  0.01116649  0.10533586    -0.73800
O142        O  0.53707656  0.01124090  0.06225202    -0.73800
O143        O  0.53733583  0.07768263  0.08322901    -0.73900
O144        O  0.52973784  0.94551222  0.08427206    -0.73900
O145        O  0.44327541  0.90567455  0.08251907    -0.73800
O146        O  0.45078594  0.03880535  0.08220733    -0.73800
O147        O  0.45066011  0.97390275  0.06087699    -0.73800
O148        O  0.44256300  0.97072997  0.10382277    -0.73900
Ni149      Ni  0.53636594  0.01282381  0.08382552     1.25400
Ni150      Ni  0.44369943  0.97080369  0.08231180     1.25400
C151        C  0.48430351  0.99075976  0.11165856     0.88400
C152        C  0.49515315  0.99280503  0.05450933     0.88300
C153        C  0.49555604  0.08018111  0.08261536     0.88400
C154        C  0.48549590  0.90386480  0.08343572     0.88500
O155        O  0.45375872  0.47803168  0.06304256    -0.73800
O156        O  0.46394604  0.48023187  0.10602785    -0.73800
O157        O  0.46299220  0.54501839  0.08487105    -0.73900
O158        O  0.45397045  0.41215052  0.08417590    -0.73900
O159        O  0.54043613  0.45045538  0.08284605    -0.73800
O160        O  0.54938840  0.58420644  0.08294653    -0.73800
O161        O  0.55041233  0.51953303  0.10431438    -0.73800
O162        O  0.54012450  0.51523888  0.06148763    -0.73900
Ni163      Ni  0.45560882  0.47740737  0.08460389     1.25400
Ni164      Ni  0.54820236  0.51874293  0.08283766     1.25400
C165        C  0.49549339  0.49642747  0.05521448     0.88400
C166        C  0.50890889  0.50079376  0.11222550     0.88300
C167        C  0.50741385  0.58642967  0.08391859     0.88400
C168        C  0.49552967  0.40927573  0.08340419     0.88500
O169        O  0.03400529  0.97209333  0.93836543    -0.73800
O170        O  0.03395129  0.97050582  0.89532466    -0.73800
O171        O  0.09614228  0.03750362  0.91676141    -0.73900
O172        O  0.97123100  0.90461727  0.91692088    -0.73900
O173        O  0.92384896  0.94387700  0.91636667    -0.73800
O174        O  0.04865652  0.07668027  0.91683458    -0.73800
O175        O  0.98728410  0.01054504  0.89508782    -0.73800
O176        O  0.98502216  0.00967535  0.93815300    -0.73900
Ni177      Ni  0.03547100  0.96972683  0.91685400     1.25400
Ni178      Ni  0.98452874  0.01161207  0.91660204     1.25400
C179        C  0.00964090  0.99121064  0.94533299     0.88400
C180        C  0.01073597  0.99040329  0.88812483     0.88300
C181        C  0.09291933  0.07895633  0.91687997     0.88400
C182        C  0.92698465  0.90238381  0.91654769     0.88500
O183        O  0.97493645  0.51860213  0.89499591    -0.73800
O184        O  0.97400160  0.51172711  0.93808209    -0.73800
O185        O  0.03664405  0.58222486  0.91719786    -0.73900
O186        O  0.91281845  0.44850714  0.91584726    -0.73900
O187        O  0.96113853  0.41024679  0.91536243    -0.73800
O188        O  0.08476332  0.54391371  0.91563150    -0.73800
O189        O  0.02449601  0.47589655  0.93703812    -0.73800
O190        O  0.02170741  0.47874915  0.89400783    -0.73900
Ni191      Ni  0.97288420  0.51665858  0.91656407     1.25400
Ni192      Ni  0.02470614  0.47581278  0.91548449     1.25400
C193        C  0.99793805  0.49927255  0.88741649     0.88400
C194        C  0.99975102  0.49327238  0.94463446     0.88300
C195        C  0.08112360  0.58503575  0.91655239     0.88400
C196        C  0.91662311  0.40738720  0.91541752     0.88500
O197        O  0.48080460  0.01346006  0.89390120    -0.73800
O198        O  0.47204861  0.01720849  0.93680623    -0.73800
O199        O  0.53956319  0.08134443  0.91562741    -0.73900
O200        O  0.41347740  0.94971916  0.91510774    -0.73900
O201        O  0.45964497  0.90944078  0.91716654    -0.73800
O202        O  0.58592563  0.04120553  0.91741863    -0.73800
O203        O  0.51913591  0.97787476  0.93878690    -0.73800
O204        O  0.52661869  0.97280602  0.89591684    -0.73900
Ni205      Ni  0.47488419  0.01692513  0.91527965     1.25400
Ni206      Ni  0.52445950  0.97388352  0.91741494     1.25400
C207        C  0.50492550  0.99234479  0.88785372     0.88400
C208        C  0.49415611  0.99802864  0.94485193     0.88300
C209        C  0.58344970  0.08298910  0.91650293     0.88400
C210        C  0.41583447  0.90790203  0.91607825     0.88500
O211        O  0.48544887  0.50741184  0.89524468    -0.73800
O212        O  0.48575994  0.51325189  0.93837513    -0.73800
O213        O  0.54817576  0.57694233  0.91617903    -0.73900
O214        O  0.42330098  0.44414861  0.91744748    -0.73900
O215        O  0.47077321  0.40506211  0.91866594    -0.73800
O216        O  0.59556081  0.53767963  0.91666736    -0.73800
O217        O  0.53491422  0.47588189  0.93908978    -0.73800
O218        O  0.53185410  0.46716626  0.89622882    -0.73900
Ni219      Ni  0.48397131  0.51187318  0.91677781     1.25400
Ni220      Ni  0.53489883  0.47002439  0.91769841     1.25400
C221        C  0.50857426  0.48617668  0.88865910     0.88400
C222        C  0.51079781  0.49574937  0.94579045     0.88300
C223        C  0.59242238  0.57915474  0.91617038     0.88400
C224        C  0.42651272  0.40276198  0.91829700     0.88500
O225        O  0.99811583  0.04840890  0.56165316    -0.73800
O226        O  0.00386316  0.05759464  0.60465335    -0.73800
O227        O  0.06289607  0.04763611  0.58299116    -0.73900
O228        O  0.93970098  0.05854495  0.58335354    -0.73900
O229        O  0.89153779  0.97225380  0.58534817    -0.73800
O230        O  0.01468469  0.96116549  0.58414242    -0.73800
O231        O  0.95769255  0.97098437  0.60614873    -0.73800
O232        O  0.94881820  0.96213501  0.56329528    -0.73900
Ni233      Ni  0.00294059  0.05614501  0.58310143     1.25400
Ni234      Ni  0.95139681  0.96356675  0.58478678     1.25400
C235        C  0.97230562  0.00368959  0.55541069     0.88400
C236        C  0.98190523  0.01567764  0.61242635     0.88300
C237        C  0.05912507  0.00270984  0.58344356     0.88400
C238        C  0.89533669  0.01715454  0.58452540     0.88500
O239        O  0.01415741  0.49468316  0.60464480    -0.73800
O240        O  0.02444885  0.49638242  0.56186998    -0.73800
O241        O  0.08415426  0.49647062  0.58486069    -0.73900
O242        O  0.95442968  0.49485327  0.58165825    -0.73900
O243        O  0.99705390  0.58158355  0.58157352    -0.73800
O244        O  0.12656450  0.58316625  0.58538690    -0.73800
O245        O  0.06768532  0.58312239  0.56201479    -0.73800
O246        O  0.05507846  0.58139364  0.60499494    -0.73900
Ni247      Ni  0.01782123  0.49254749  0.58325401     1.25400
Ni248      Ni  0.06320827  0.58544704  0.58351115     1.25400
C249        C  0.03243532  0.53756044  0.61185726     0.88400
C250        C  0.04744947  0.53989407  0.55487765     0.88300
C251        C  0.12673228  0.54007729  0.58559996     0.88400
C252        C  0.95443474  0.53801314  0.58106825     0.88500
O253        O  0.45617374  0.96835020  0.60535048    -0.73800
O254        O  0.45501898  0.96655633  0.56224963    -0.73800
O255        O  0.51884250  0.96583252  0.58389896    -0.73900
O256        O  0.39142091  0.96895175  0.58372742    -0.73900
O257        O  0.43664293  0.05564488  0.58312516    -0.73800
O258        O  0.56412892  0.05255852  0.58390071    -0.73800
O259        O  0.50086294  0.05325217  0.56205300    -0.73800
O260        O  0.49980147  0.05511716  0.60502847    -0.73900
Ni261      Ni  0.45366470  0.96431162  0.58382053     1.25400
Ni262      Ni  0.50192066  0.05722000  0.58351733     1.25400
C263        C  0.47880936  0.01205101  0.61225407     0.88400
C264        C  0.47803143  0.00976332  0.55507133     0.88300
C265        C  0.56235615  0.00853738  0.58405564     0.88400
C266        C  0.39311816  0.01291691  0.58324413     0.88500
O267        O  0.54493636  0.55040370  0.56158264    -0.73800
O268        O  0.55051611  0.55642498  0.60474750    -0.73800
O269        O  0.61252289  0.55343965  0.58262462    -0.73900
O270        O  0.48352466  0.55388081  0.58367167    -0.73900
O271        O  0.44019040  0.46728179  0.58505520    -0.73800
O272        O  0.56909652  0.46674768  0.58334961    -0.73800
O273        O  0.50874391  0.46974795  0.60566369    -0.73800
O274        O  0.50049731  0.46377633  0.56277899    -0.73900
Ni275      Ni  0.54948961  0.55667128  0.58312372     1.25400
Ni276      Ni  0.50310516  0.46385448  0.58425265     1.25400
C277        C  0.52151538  0.50589328  0.55510296     0.88400
C278        C  0.53042884  0.51391148  0.61228300     0.88300
C279        C  0.61203298  0.51001501  0.58268612     0.88400
C280        C  0.44062507  0.51066113  0.58460206     0.88500
O281        O  0.01691840  0.98100229  0.77167657    -0.73800
O282        O  0.01753989  0.98152333  0.72867820    -0.73800
O283        O  0.08155909  0.04637501  0.75029733    -0.73900
O284        O  0.95312505  0.91646347  0.75003030    -0.73900
O285        O  0.90920629  0.95931998  0.74966496    -0.73800
O286        O  0.03754080  0.08913173  0.75053387    -0.73800
O287        O  0.97483485  0.02563195  0.72861003    -0.73800
O288        O  0.97202603  0.02289033  0.77162731    -0.73900
Ni289      Ni  0.01889751  0.97985968  0.75017424     1.25400
Ni290      Ni  0.97182094  0.02575679  0.75011349     1.25400
C291        C  0.99420661  0.00171025  0.77872769     0.88400
C292        C  0.99626487  0.00359010  0.72157996     0.88300
C293        C  0.08069710  0.08912446  0.75051098     0.88400
C294        C  0.91000343  0.91655684  0.74969790     0.88500
O295        O  0.97899054  0.51299029  0.72789409    -0.73800
O296        O  0.97760248  0.50741662  0.77096980    -0.73800
O297        O  0.04031369  0.57620948  0.74991606    -0.73900
O298        O  0.91554402  0.44356201  0.74889383    -0.73900
O299        O  0.96268504  0.40402232  0.74864731    -0.73800
O300        O  0.08762100  0.53688578  0.74906867    -0.73800
O301        O  0.02548532  0.46869412  0.77031423    -0.73800
O302        O  0.02451674  0.47172784  0.72734833    -0.73900
Ni303      Ni  0.97634598  0.51137538  0.74944489     1.25400
Ni304      Ni  0.02678618  0.46896087  0.74881307     1.25400
C305        C  0.00206590  0.49322142  0.72056888     0.88400
C306        C  0.00164674  0.48744201  0.77772118     0.88300
C307        C  0.08448140  0.57839418  0.74959123     0.88400
C308        C  0.91854501  0.40196442  0.74870398     0.88500
O309        O  0.47915187  0.01233988  0.72793756    -0.73800
O310        O  0.47560953  0.01107256  0.77080293    -0.73800
O311        O  0.54010195  0.07738729  0.74964876    -0.73900
O312        O  0.41432672  0.94520969  0.74910222    -0.73900
O313        O  0.46099167  0.90522068  0.75003101    -0.73800
O314        O  0.58661729  0.03717901  0.74970137    -0.73800
O315        O  0.52328011  0.97211406  0.77142620    -0.73800
O316        O  0.52367292  0.97003442  0.72824644    -0.73900
Ni317      Ni  0.47560519  0.01286177  0.74935706     1.25400
Ni318      Ni  0.52535472  0.96971185  0.74985798     1.25400
C319        C  0.50183642  0.99138750  0.72103440     0.88400
C320        C  0.49900388  0.99180203  0.77818819     0.88300
C321        C  0.58404377  0.07900206  0.74966839     0.88400
C322        C  0.41701920  0.90345176  0.74963464     0.88500
O323        O  0.52970890  0.46976184  0.77247695    -0.73800
O324        O  0.53169306  0.46336490  0.72942056    -0.73800
O325        O  0.59593734  0.53071132  0.75056116    -0.73900
O326        O  0.46590435  0.40263333  0.75130371    -0.73900
O327        O  0.42338081  0.44668354  0.74958242    -0.73800
O328        O  0.55348452  0.57496280  0.74952607    -0.73800
O329        O  0.49107384  0.50938916  0.72807203    -0.73800
O330        O  0.48630311  0.51299611  0.77103842    -0.73900
Ni331      Ni  0.53233839  0.46504892  0.75099749     1.25400
Ni332      Ni  0.48699340  0.51251592  0.74950551     1.25400
C333        C  0.50734223  0.49215029  0.77883745     0.88400
C334        C  0.51234235  0.48602813  0.72168562     0.88300
C335        C  0.59612236  0.57392301  0.74990238     0.88400
C336        C  0.42326213  0.40351992  0.75053568     0.88500
C337        C  0.69788391  0.21935056  0.74882044     0.16600
C338        C  0.72990793  0.27347349  0.74822738    -0.32400
C339        C  0.78383993  0.29355725  0.74852434     0.21000
C340        C  0.80504585  0.26125977  0.74935753     0.03200
C341        C  0.77300409  0.20709570  0.74995246    -0.22200
C342        C  0.71903570  0.18700469  0.74966044     0.12400
S343        S  0.63154411  0.18744817  0.74856774    -0.05800
C344        C  0.63220493  0.12982251  0.74956911    -0.09300
C345        C  0.68149536  0.13551369  0.75009356    -0.25900
S346        S  0.87143412  0.29335722  0.74963537    -0.03100
C347        C  0.87059779  0.35093173  0.74866975    -0.16500
C348        C  0.82125934  0.34505915  0.74812799    -0.14500
H349        H  0.71350326  0.29882874  0.74757473     0.20800
H350        H  0.78940652  0.18174056  0.75061628     0.16900
H351        H  0.68944173  0.10369972  0.75072299     0.19400
H352        H  0.81317737  0.37678790  0.74753318     0.12700
C353        C  0.30410484  0.76266879  0.75094718     0.16600
C354        C  0.27257505  0.70848875  0.75164678    -0.32400
C355        C  0.21862790  0.68773047  0.75071653     0.21000
C356        C  0.19696340  0.71948272  0.74926011     0.03200
C357        C  0.22849878  0.77369234  0.74859624    -0.22200
C358        C  0.28248471  0.79444571  0.74944262     0.12400
S359        S  0.37038636  0.79529011  0.75167532    -0.05800
C360        C  0.36908041  0.85243871  0.74989689    -0.09300
C361        C  0.31961455  0.84608485  0.74885557    -0.25900
S362        S  0.13069064  0.68670901  0.74828272    -0.03100
C363        C  0.13217651  0.62957239  0.74976016    -0.16500
C364        C  0.18162893  0.63604571  0.75098566    -0.14500
H365        H  0.28937490  0.68359113  0.75277769     0.20800
H366        H  0.21170792  0.79857726  0.74740191     0.16900
H367        H  0.31127384  0.87751188  0.74768469     0.19400
H368        H  0.19006371  0.60464042  0.75200857     0.12700
C369        C  0.77209045  0.79809454  0.74860232     0.16600
C370        C  0.71824206  0.76404614  0.74827203    -0.32400
C371        C  0.70050056  0.71055264  0.74873709     0.21000
C372        C  0.73477682  0.69165614  0.74940758     0.03200
C373        C  0.78870379  0.72573469  0.74965082    -0.22200
C374        C  0.80645658  0.77930163  0.74927558     0.12400
S375        S  0.80122482  0.86429794  0.74843431    -0.05800
C376        C  0.86047016  0.86687801  0.74931756    -0.09300
C377        C  0.85730431  0.81863440  0.74966000    -0.25900
S378        S  0.70526386  0.62537911  0.75009341    -0.03100
C379        C  0.64610625  0.62315313  0.74954286    -0.16500
C380        C  0.64961220  0.67146262  0.74878167    -0.14500
H381        H  0.69132041  0.77862818  0.74780159     0.20800
H382        H  0.81561428  0.71115956  0.75023108     0.16900
H383        H  0.89040022  0.81265562  0.75024326     0.19400
H384        H  0.61665134  0.67769442  0.74837388     0.12700
C385        C  0.30494800  0.26541798  0.75095713     0.16600
C386        C  0.27102720  0.21153082  0.75095381    -0.32400
C387        C  0.21746208  0.19363988  0.75091920     0.21000
C388        C  0.19840749  0.22782559  0.75094717     0.03200
C389        C  0.23236339  0.28178085  0.75096473    -0.22200
C390        C  0.28599363  0.29969193  0.75093223     0.12400
S391        S  0.37117651  0.29473325  0.75089104    -0.05800
C392        C  0.37356550  0.35394679  0.75074467    -0.09300
C393        C  0.32523202  0.35062833  0.75080025    -0.25900
S394        S  0.13207410  0.19818926  0.75085094    -0.03100
C395        C  0.13000106  0.13908850  0.75072526    -0.16500
C396        C  0.17842901  0.14270283  0.75079162    -0.14500
H397        H  0.28575392  0.18470483  0.75092500     0.20800
H398        H  0.21763690  0.30860527  0.75094308     0.16900
H399        H  0.31912719  0.38367627  0.75073193     0.19400
H400        H  0.18476954  0.10980152  0.75071659     0.12700
C401        C  0.52973854  0.53304009  0.65492024     0.16600
C402        C  0.52811328  0.55012146  0.66948307    -0.32400
C403        C  0.52224809  0.51693014  0.68148589     0.21000
C404        C  0.51916654  0.46927833  0.67915190     0.03200
C405        C  0.52000746  0.45186178  0.66457597    -0.22200
C406        C  0.52494195  0.48466272  0.65255752     0.12400
S407        S  0.53646560  0.56740834  0.63884000    -0.05800
C408        C  0.53134176  0.51544830  0.62881342    -0.09300
C409        C  0.52537474  0.47417446  0.63758852    -0.25900
S410        S  0.51440311  0.43576773  0.69526381    -0.03100
C411        C  0.51513595  0.48587672  0.70520085    -0.16500
C412        C  0.51926636  0.52634859  0.69641510    -0.14500
H413        H  0.53110871  0.58755093  0.67137434     0.20800
H414        H  0.51685629  0.41436523  0.66268191     0.16900
H415        H  0.52138116  0.43830489  0.63323099     0.19400
H416        H  0.52091266  0.56121204  0.70075639     0.12700
C417        C  0.49542000  0.97305597  0.67835365     0.16600
C418        C  0.48877645  0.95380992  0.66366285    -0.32400
C419        C  0.48702694  0.98486077  0.65204256     0.21000
C420        C  0.49288985  0.03345921  0.65485363     0.03200
C421        C  0.49895949  0.05246126  0.66955157    -0.22200
C422        C  0.49947025  0.02087944  0.68119746     0.12400
S423        S  0.49762895  0.94101494  0.69405731    -0.05800
C424        C  0.50222595  0.99180376  0.70455200    -0.09300
C425        C  0.50291002  0.03161789  0.69623709    -0.25900
S426        S  0.49183539  0.06601599  0.63915205    -0.03100
C427        C  0.48199557  0.01299316  0.62873272    -0.16500
C428        C  0.48012546  0.97263925  0.63707043    -0.14500
H429        H  0.48472856  0.91612566  0.66140034     0.20800
H430        H  0.50272058  0.09002468  0.67182246     0.16900
H431        H  0.50537063  0.06637324  0.70097745     0.19400
H432        H  0.47519412  0.93679641  0.63238102     0.12700
C433        C  0.72983995  0.48923971  0.58112057     0.16600
C434        C  0.76377730  0.46920962  0.58108944    -0.32400
C435        C  0.81730279  0.50475528  0.58019938     0.21000
C436        C  0.83619696  0.55786095  0.57924383     0.03200
C437        C  0.80224384  0.57785897  0.57914854    -0.22200
C438        C  0.74875327  0.54234998  0.58018915     0.12400
S439        S  0.66372289  0.45270378  0.58252964    -0.05800
C440        C  0.66144228  0.50957586  0.58192653    -0.09300
C441        C  0.70968720  0.55427514  0.58063984    -0.25900
S442        S  0.90243350  0.59462927  0.57876842    -0.03100
C443        C  0.90483303  0.53791325  0.58000429    -0.16500
C444        C  0.85652035  0.49302885  0.58056089    -0.14500
H445        H  0.74913785  0.42777931  0.58193728     0.20800
H446        H  0.81692456  0.61933939  0.57852066     0.16900
H447        H  0.71587845  0.59342454  0.58011580     0.19400
H448        H  0.85042279  0.45399382  0.58151974     0.12700
C449        C  0.30256447  0.49122722  0.58611510     0.16600
C450        C  0.24870533  0.47153664  0.58654103    -0.32400
C451        C  0.23101798  0.50739832  0.58664973     0.21000
C452        C  0.26536592  0.56056163  0.58643354     0.03200
C453        C  0.31928751  0.58028439  0.58604495    -0.22200
C454        C  0.33697689  0.54437794  0.58584477     0.12400
S455        S  0.33169369  0.45408612  0.58574295    -0.05800
C456        C  0.39099219  0.51071906  0.58517060    -0.09300
C457        C  0.38781563  0.55581729  0.58528663    -0.25900
S458        S  0.23592802  0.59749239  0.58632238    -0.03100
C459        C  0.17667270  0.54066544  0.58643392    -0.16500
C460        C  0.18012845  0.49575798  0.58668583    -0.14500
H461        H  0.22173142  0.43004159  0.58666173     0.20800
H462        H  0.34625064  0.62177295  0.58578363     0.16900
H463        H  0.42092947  0.59489453  0.58497175     0.19400
H464        H  0.14712541  0.45659578  0.58665013     0.12700
C465        C  0.01904674  0.54851345  0.65441938     0.16600
C466        C  0.01509751  0.56311904  0.66913991    -0.32400
C467        C  0.00914459  0.52860037  0.68079133     0.21000
C468        C  0.00771900  0.48197467  0.67791531     0.03200
C469        C  0.01043232  0.46690693  0.66321934    -0.22200
C470        C  0.01594936  0.50110589  0.65160232     0.12400
S471        S  0.02848080  0.58542404  0.63869340    -0.05800
C472        C  0.02718373  0.53583895  0.62828998    -0.09300
C473        C  0.01995575  0.49339002  0.63664761    -0.25900
S474        S  0.00396503  0.44703473  0.69354446    -0.03100
C475        C  0.00311894  0.49509083  0.70410099    -0.16500
C476        C  0.00567658  0.53598485  0.69586464    -0.14500
H477        H  0.01722963  0.59995451  0.67142636     0.20800
H478        H  0.00905581  0.43040543  0.66095000     0.16900
H479        H  0.01848918  0.45893722  0.63202791     0.19400
H480        H  0.00661205  0.56993115  0.70068050     0.12700
C481        C  0.67611221  0.98225739  0.58543880     0.16600
C482        C  0.70773831  0.95975579  0.58592803    -0.32400
C483        C  0.76163316  0.99315547  0.58556045     0.21000
C484        C  0.78329751  0.04670724  0.58481155     0.03200
C485        C  0.75159697  0.06932580  0.58441873    -0.22200
C486        C  0.69752971  0.03579375  0.58471397     0.12400
S487        S  0.60989514  0.94803953  0.58548351    -0.05800
C488        C  0.61074206  0.00637001  0.58449716    -0.09300
C489        C  0.66007420  0.04995397  0.58420491    -0.25900
S490        S  0.84970135  0.08021448  0.58419293    -0.03100
C491        C  0.84801835  0.02132619  0.58489753    -0.16500
C492        C  0.79851692  0.97838474  0.58565930    -0.14500
H493        H  0.69103009  0.91795021  0.58644345     0.20800
H494        H  0.76829614  0.11110926  0.58378318     0.16900
H495        H  0.66807013  0.08972190  0.58357894     0.19400
H496        H  0.78991350  0.93839320  0.58611455     0.12700
C497        C  0.27881704  0.03858934  0.58182277     0.16600
C498        C  0.24694134  0.06084129  0.58137052    -0.32400
C499        C  0.19309894  0.02730725  0.58215542     0.21000
C500        C  0.17171626  0.97385774  0.58324446     0.03200
C501        C  0.20365464  0.95149577  0.58361526    -0.22200
C502        C  0.25766659  0.98516092  0.58292234     0.12400
S503        S  0.34505477  0.07299337  0.58136702    -0.05800
C504        C  0.34458186  0.01490363  0.58275695    -0.09300
C505        C  0.29532526  0.97125353  0.58341402    -0.25900
S506        S  0.10533680  0.94013305  0.58421042    -0.03100
C507        C  0.10661512  0.99877755  0.58316351    -0.16500
C508        C  0.15600217  0.04181662  0.58210220    -0.14500
H509        H  0.26343406  0.10257327  0.58057186     0.20800
H510        H  0.18717677  0.90979525  0.58452782     0.16900
H511        H  0.28752025  0.93160492  0.58433647     0.19400
H512        H  0.16437326  0.08169577  0.58137415     0.12700
C513        C  0.98275853  0.03615084  0.65485261     0.16600
C514        C  0.97938680  0.05189429  0.66944613    -0.32400
C515        C  0.98717018  0.02585068  0.68143625     0.21000
C516        C  0.99846413  0.98637953  0.67901700     0.03200
C517        C  0.00092472  0.97003675  0.66444921    -0.22200
C518        C  0.99241719  0.99554633  0.65247973     0.12400
S519        S  0.97565978  0.06341911  0.63876508    -0.05800
C520        C  0.98440533  0.01866211  0.62883609    -0.09300
C521        C  0.99266729  0.98485307  0.63754876    -0.25900
S522        S  0.00833209  0.96081005  0.69500711    -0.03100
C523        C  0.99603370  0.00297935  0.70508812    -0.16500
C524        C  0.98522377  0.03523389  0.69641557    -0.14500
H525        H  0.97119728  0.08311267  0.67136930     0.20800
H526        H  0.00914173  0.93883394  0.66252685     0.16900
H527        H  0.99910121  0.95450290  0.63316045     0.19400
H528        H  0.97676995  0.06419785  0.70083253     0.12700
C529        C  0.52224020  0.47186919  0.84630520     0.16600
C530        C  0.53450584  0.46133245  0.83201073    -0.32400
C531        C  0.51844902  0.47857504  0.81953279     0.21000
C532        C  0.49132046  0.50509393  0.82119493     0.03200
C533        C  0.47896975  0.51557470  0.83550336    -0.22200
C534        C  0.49508209  0.49835475  0.84799291     0.12400
S535        S  0.53889741  0.45477996  0.86280888    -0.05800
C536        C  0.50910914  0.48373381  0.87213858    -0.09300
C537        C  0.48728980  0.50519152  0.86281691    -0.25900
S538        S  0.47529804  0.52263163  0.80463452    -0.03100
C539        C  0.50537694  0.49382215  0.79536079    -0.16500
C540        C  0.52667645  0.47201830  0.80473822    -0.14500
H541        H  0.55575692  0.44070815  0.83067491     0.20800
H542        H  0.45784245  0.53632109  0.83684051     0.16900
H543        H  0.46730178  0.52516287  0.86667102     0.19400
H544        H  0.54691627  0.45223480  0.80093862     0.12700
C545        C  0.52039525  0.97690713  0.84562933     0.16600
C546        C  0.53190874  0.96530418  0.83134539    -0.32400
C547        C  0.51371413  0.98025595  0.81881218     0.21000
C548        C  0.48532562  0.00550802  0.82046259     0.03200
C549        C  0.47388528  0.01707704  0.83469699    -0.22200
C550        C  0.49206819  0.00224014  0.84718695     0.12400
S551        S  0.53854260  0.96203120  0.86228626    -0.05800
C552        C  0.50751038  0.99023146  0.87138132    -0.09300
C553        C  0.48462439  0.01004890  0.86190584    -0.25900
S554        S  0.46675966  0.02064523  0.80400691    -0.03100
C555        C  0.49769121  0.99290303  0.79469330    -0.16500
C556        C  0.52096443  0.97284222  0.80398491    -0.14500
H557        H  0.55403538  0.94555755  0.83006092     0.20800
H558        H  0.45175549  0.03682639  0.83598140     0.16900
H559        H  0.46339687  0.02895992  0.86558850     0.19400
H560        H  0.54213569  0.95409905  0.80011253     0.12700
C561        C  0.69690345  0.22349896  0.91591894     0.16600
C562        C  0.72858096  0.27766847  0.91583333    -0.32400
C563        C  0.78251345  0.29808494  0.91529241     0.21000
C564        C  0.80411178  0.26609237  0.91477105     0.03200
C565        C  0.77237983  0.21181164  0.91481301    -0.22200
C566        C  0.71835176  0.19136148  0.91545593     0.12400
S567        S  0.63062931  0.19135528  0.91662263    -0.05800
C568        C  0.63160286  0.13384084  0.91634802    -0.09300
C569        C  0.68099661  0.13974094  0.91573620    -0.25900
S570        S  0.87054937  0.29874430  0.91437042    -0.03100
C571        C  0.86909113  0.35604724  0.91503249    -0.16500
C572        C  0.81956020  0.34968881  0.91540355    -0.14500
H573        H  0.71191353  0.30282698  0.91625915     0.20800
H574        H  0.78905626  0.18665514  0.91446417     0.16900
H575        H  0.68911434  0.10800713  0.91542619     0.19400
H576        H  0.81107919  0.38116265  0.91588962     0.12700
C577        C  0.19464570  0.72587437  0.91778108     0.16600
C578        C  0.22688488  0.78002092  0.91851059    -0.32400
C579        C  0.28071654  0.80015133  0.91712941     0.21000
C580        C  0.30154353  0.76784692  0.91519796     0.03200
C581        C  0.26934451  0.71380513  0.91444742    -0.22200
C582        C  0.21559097  0.69371525  0.91577175     0.12400
S583        S  0.12831473  0.69360357  0.91907984    -0.05800
C584        C  0.12891437  0.63622813  0.91683977    -0.09300
C585        C  0.17811943  0.64230186  0.91524612    -0.25900
S586        S  0.36775512  0.79964251  0.91393896    -0.03100
C587        C  0.36752809  0.85721167  0.91595108    -0.16500
C588        C  0.31845089  0.85160013  0.91749841    -0.14500
H589        H  0.21073712  0.80533017  0.92005273     0.20800
H590        H  0.28549147  0.68849719  0.91289519     0.16900
H591        H  0.18607579  0.61074910  0.91370056     0.19400
H592        H  0.31083388  0.88341532  0.91894121     0.12700
C593        C  0.98389131  0.51074288  0.84488209     0.16600
C594        C  0.97249323  0.52100307  0.83042398    -0.32400
C595        C  0.98834331  0.50254056  0.81818327     0.21000
C596        C  0.01436581  0.47507051  0.82023311     0.03200
C597        C  0.02568218  0.46473428  0.83468615    -0.22200
C598        C  0.00990652  0.48326750  0.84692296     0.12400
S599        S  0.96790543  0.52969254  0.86118775    -0.05800
C600        C  0.99662075  0.50032795  0.87087723    -0.09300
C601        C  0.01740186  0.47723003  0.86181652    -0.25900
S602        S  0.03079895  0.45651347  0.80394929    -0.03100
C603        C  0.00232457  0.48609053  0.79424808    -0.16500
C604        C  0.98118781  0.50888603  0.80328110    -0.14500
H605        H  0.95223876  0.54249488  0.82878780     0.20800
H606        H  0.04601918  0.44332048  0.83632071     0.16900
H607        H  0.03669799  0.45683576  0.86590669     0.19400
H608        H  0.96201953  0.52937703  0.79916930     0.12700
C609        C  0.70611433  0.71982932  0.91525411     0.16600
C610        C  0.73819940  0.77401875  0.91517949    -0.32400
C611        C  0.79215834  0.79405935  0.91556102     0.21000
C612        C  0.81332248  0.76167209  0.91592001     0.03200
C613        C  0.78124312  0.70748576  0.91593049    -0.22200
C614        C  0.72728278  0.68744660  0.91562743     0.12400
S615        S  0.63969537  0.68783319  0.91514301    -0.05800
C616        C  0.64041715  0.63016447  0.91566756    -0.09300
C617        C  0.68977386  0.63594542  0.91583808    -0.25900
S618        S  0.87971206  0.79366018  0.91647219    -0.03100
C619        C  0.87899283  0.85134308  0.91626213    -0.16500
C620        C  0.82965674  0.84556812  0.91574335    -0.14500
H621        H  0.72182468  0.79944805  0.91494499     0.20800
H622        H  0.79761102  0.68205781  0.91626673     0.16900
H623        H  0.69780465  0.60415735  0.91622974     0.19400
H624        H  0.82162923  0.87737187  0.91554485     0.12700
C625        C  0.20608203  0.21974522  0.91781401     0.16600
C626        C  0.23792586  0.27393844  0.91807479    -0.32400
C627        C  0.29189624  0.29418093  0.91847217     0.21000
C628        C  0.31328577  0.26197707  0.91867491     0.03200
C629        C  0.28143820  0.20778162  0.91844664    -0.22200
C630        C  0.22747466  0.18754280  0.91797668     0.12400
S631        S  0.13972203  0.18754422  0.91722282    -0.05800
C632        C  0.14077824  0.13003460  0.91716901    -0.09300
C633        C  0.19018105  0.13599780  0.91759571    -0.25900
S634        S  0.37967072  0.29419001  0.91896709    -0.03100
C635        C  0.37863677  0.35170638  0.91870678    -0.16500
C636        C  0.32921697  0.34573724  0.91851317    -0.14500
H637        H  0.22137670  0.29922021  0.91789376     0.20800
H638        H  0.29799486  0.18250334  0.91854622     0.16900
H639        H  0.19838471  0.10430731  0.91765912     0.19400
H640        H  0.32102291  0.37742704  0.91825846     0.12700
C641        C  0.02155805  0.98034105  0.84542036     0.16600
C642        C  0.03234852  0.97118989  0.83076962    -0.32400
C643        C  0.01217945  0.98668781  0.81886395     0.21000
C644        C  0.98258257  0.01021164  0.82141123     0.03200
C645        C  0.97173776  0.01927737  0.83605134    -0.22200
C646        C  0.99193578  0.00384475  0.84795046     0.12400
S647        S  0.04245300  0.96456516  0.86139817    -0.05800
C648        C  0.01093166  0.98994192  0.87159287    -0.09300
C649        C  0.98572068  0.00947937  0.86294502    -0.25900
S650        S  0.96201408  0.02649533  0.80547750    -0.03100
C651        C  0.99363757  0.00136378  0.79524866    -0.16500
C652        C  0.01859680  0.98141530  0.80385268    -0.14500
H653        H  0.05549858  0.95289333  0.82873994     0.20800
H654        H  0.94867008  0.03766372  0.83807965     0.16900
H655        H  0.96392220  0.02681762  0.86738993     0.19400
H656        H  0.04048565  0.96423033  0.79936847     0.12700
C657        C  0.47289548  0.49708168  0.01277025     0.16600
C658        C  0.45457372  0.49745351  0.99825390    -0.32400
C659        C  0.48549605  0.49923687  0.98606090     0.21000
C660        C  0.53222214  0.50012446  0.98825533     0.03200
C661        C  0.55092988  0.50078372  0.00271559    -0.22200
C662        C  0.52033200  0.49941866  0.01485690     0.12400
S663        S  0.44089071  0.49351797  0.02910554    -0.05800
C664        C  0.49258860  0.49625899  0.03874267    -0.09300
C665        C  0.53204277  0.49948809  0.02970563    -0.25900
S666        S  0.56274331  0.49917819  0.97215631    -0.03100
C667        C  0.51259311  0.49848897  0.96226764    -0.16500
C668        C  0.47431144  0.49902515  0.97108536    -0.14500
H669        H  0.41770951  0.49592172  0.99653955     0.20800
H670        H  0.58753973  0.50176379  0.00443126     0.16900
H671        H  0.56728068  0.50128114  0.03379678     0.19400
H672        H  0.43962653  0.49788658  0.96677997     0.12700
C673        C  0.46269333  0.76462741  0.08389534     0.16600
C674        C  0.44229460  0.71072523  0.08433369    -0.32400
C675        C  0.47758843  0.69234527  0.08403126     0.21000
C676        C  0.53085487  0.72593189  0.08326837     0.03200
C677        C  0.55127966  0.77987607  0.08285002    -0.22200
C678        C  0.51596601  0.79827477  0.08321740     0.12400
S679        S  0.42643451  0.79477973  0.08417742    -0.05800
C680        C  0.48371592  0.85340567  0.08348592    -0.09300
C681        C  0.52823886  0.84924344  0.08300471    -0.25900
S682        S  0.56696638  0.69558828  0.08291841    -0.03100
C683        C  0.50959321  0.63705911  0.08385900    -0.16500
C684        C  0.46520451  0.64139189  0.08439626    -0.14500
H685        H  0.40072680  0.68424709  0.08490160     0.20800
H686        H  0.59284775  0.80635158  0.08228621     0.16900
H687        H  0.56759625  0.88185045  0.08250711     0.19400
H688        H  0.42580607  0.60888338  0.08497028     0.12700
C689        C  0.46415793  0.26720638  0.08239336     0.16600
C690        C  0.44037782  0.21285380  0.08195924    -0.32400
C691        C  0.47280170  0.19106937  0.08216555     0.21000
C692        C  0.52650560  0.22203812  0.08275266     0.03200
C693        C  0.55027643  0.27636474  0.08312702    -0.22200
C694        C  0.51786844  0.29813994  0.08293745     0.12400
S695        S  0.43169082  0.30110905  0.08239862    -0.05800
C696        C  0.49110914  0.35762778  0.08310169    -0.09300
C697        C  0.53360319  0.35010786  0.08331254    -0.25900
S698        S  0.55903653  0.18825208  0.08308870    -0.03100
C699        C  0.49968748  0.13168383  0.08244899    -0.16500
C700        C  0.45712915  0.13908605  0.08196249    -0.14500
H701        H  0.39844372  0.18861346  0.08154572     0.20800
H702        H  0.59220338  0.30059653  0.08360420     0.16900
H703        H  0.57382268  0.38097212  0.08376986     0.19400
H704        H  0.41693226  0.10814668  0.08157377     0.12700
C705        C  0.46980334  0.00187450  0.98710192     0.16600
C706        C  0.45121096  0.00436811  0.00139501    -0.32400
C707        C  0.47621341  0.99786442  0.01391407     0.21000
C708        C  0.51827332  0.99000331  0.01227750     0.03200
C709        C  0.53621790  0.98662539  0.99801150    -0.22200
C710        C  0.51088184  0.99248216  0.98551767     0.12400
S711        S  0.44557670  0.00951369  0.97046623    -0.05800
C712        C  0.49063398  0.99884310  0.96132815    -0.09300
C713        C  0.52269223  0.99025739  0.97077224    -0.25900
S714        S  0.54489313  0.98541523  0.02879874    -0.03100
C715        C  0.49819552  0.99298347  0.03804097    -0.16500
C716        C  0.46400583  0.99886777  0.02872833    -0.14500
H717        H  0.41884156  0.01121573  0.00270111     0.20800
H718        H  0.56870240  0.97995612  0.99670476     0.16900
H719        H  0.55328848  0.98308765  0.96704202     0.19400
H720        H  0.43255170  0.00446638  0.03260612     0.12700
C721        C  0.96722524  0.48765818  0.01223570     0.16600
C722        C  0.94575098  0.48495389  0.99796706    -0.32400
C723        C  0.97634737  0.48974049  0.98535442     0.21000
C724        C  0.02568669  0.49604607  0.98691153     0.03200
C725        C  0.04738766  0.49959936  0.00113795    -0.22200
C726        C  0.01720377  0.49560884  0.01371558     0.12400
S727        S  0.93659076  0.48229476  0.02897158    -0.05800
C728        C  0.99224418  0.49215613  0.03801100    -0.09300
C729        C  0.03193248  0.49871384  0.02845084    -0.25900
S730        S  0.05595205  0.49898392  0.97034734    -0.03100
C731        C  0.00221355  0.49294445  0.96114256    -0.16500
C732        C  0.96287336  0.48863527  0.97052704    -0.14500
H733        H  0.90698107  0.47937801  0.99675338     0.20800
H734        H  0.08616347  0.50518806  0.00235102     0.16900
H735        H  0.06953303  0.50519759  0.03209466     0.19400
H736        H  0.92625621  0.48426919  0.96670312     0.12700
C737        C  0.95812980  0.76372699  0.08271440     0.16600
C738        C  0.93764425  0.70974487  0.08328178    -0.32400
C739        C  0.97263515  0.69113577  0.08207398     0.21000
C740        C  0.02558161  0.72475302  0.08025139     0.03200
C741        C  0.04601722  0.77865710  0.07963562    -0.22200
C742        C  0.01112637  0.79726943  0.08099063     0.12400
S743        S  0.92239627  0.79416418  0.08419112    -0.05800
C744        C  0.97954349  0.85272448  0.08261077    -0.09300
C745        C  0.02367096  0.84838378  0.08095398    -0.25900
S746        S  0.06170815  0.69473416  0.07921858    -0.03100
C747        C  0.00498940  0.63616251  0.08139251    -0.16500
C748        C  0.96052362  0.64012640  0.08270887    -0.14500
H749        H  0.89632533  0.68344660  0.08473387     0.20800
H750        H  0.08739034  0.80497819  0.07831051     0.16900
H751        H  0.06285851  0.88089684  0.07977622     0.19400
H752        H  0.92155339  0.60753444  0.08420750     0.12700
C753        C  0.96390935  0.19385999  0.08502434     0.16600
C754        C  0.94324166  0.22713906  0.08558791    -0.32400
C755        C  0.97819194  0.28075730  0.08513372     0.21000
C756        C  0.03146242  0.30048838  0.08422220     0.03200
C757        C  0.05221834  0.26715191  0.08374571    -0.22200
C758        C  0.01716358  0.21340920  0.08414212     0.12400
S759        S  0.92770439  0.12771474  0.08518635    -0.05800
C760        C  0.98479997  0.12604453  0.08407083    -0.09300
C761        C  0.02947040  0.17457542  0.08362285    -0.25900
S762        S  0.06712265  0.36678215  0.08352684    -0.03100
C763        C  0.00958598  0.36784565  0.08442105    -0.16500
C764        C  0.96540342  0.31917611  0.08529196    -0.14500
H765        H  0.90165113  0.21186871  0.08623493     0.20800
H766        H  0.09378483  0.28241252  0.08298752     0.16900
H767        H  0.06871092  0.18107500  0.08289392     0.19400
H768        H  0.92597216  0.31222448  0.08585785     0.12700
C769        C  0.02850373  0.99352470  0.98802507     0.16600
C770        C  0.04614064  0.99419393  0.00268424    -0.32400
C771        C  0.01537641  0.99453859  0.01460199     0.21000
C772        C  0.96882517  0.99364029  0.01203857     0.03200
C773        C  0.95172218  0.99402056  0.99738533    -0.22200
C774        C  0.98275126  0.99423624  0.98547401     0.12400
S775        S  0.05921590  0.99123224  0.97206490    -0.05800
C776        C  0.01043553  0.99227082  0.96184858    -0.09300
C777        C  0.97251573  0.99420577  0.97045274    -0.25900
S778        S  0.93581818  0.99147532  0.02797422    -0.03100
C779        C  0.98580479  0.99301165  0.03822052    -0.16500
C780        C  0.02567872  0.99484870  0.02963968    -0.14500
H781        H  0.08203261  0.99401523  0.00471135     0.20800
H782        H  0.91558082  0.99370091  0.99535782     0.16900
H783        H  0.93881383  0.99462765  0.96595650     0.19400
H784        H  0.05981352  0.99536355  0.03416268     0.12700
C785        C  0.50331812  0.47640020  0.51284538     0.16600
C786        C  0.49015955  0.45303638  0.49863280    -0.32400
C787        C  0.51003412  0.48552342  0.48603035     0.21000
C788        C  0.54135020  0.53894317  0.48750942     0.03200
C789        C  0.55445602  0.56232404  0.50172699    -0.22200
C790        C  0.53476491  0.52980060  0.51433637     0.12400
S791        S  0.48386213  0.44360910  0.52947834    -0.05800
C792        C  0.51854145  0.50240821  0.53858929    -0.09300
C793        C  0.54356412  0.54502753  0.52910427    -0.25900
S794        S  0.56136889  0.57159003  0.47085691    -0.03100
C795        C  0.52743330  0.51263331  0.46178103    -0.16500
C796        C  0.50200290  0.47013555  0.47128054    -0.14500
H797        H  0.46572907  0.41133541  0.49745377     0.20800
H798        H  0.57905955  0.60400170  0.50290629     0.16900
H799        H  0.56730498  0.58488542  0.53280506     0.19400
H800        H  0.47871126  0.43019666  0.46759813     0.12700
C801        C  0.45556694  0.96356343  0.48813725     0.16600
C802        C  0.44593344  0.94273949  0.50271800    -0.32400
C803        C  0.46274097  0.97779403  0.51480001     0.21000
C804        C  0.48803738  0.03110476  0.51245172     0.03200
C805        C  0.49754374  0.05184314  0.49791329    -0.22200
C806        C  0.48073220  0.01689293  0.48586488     0.12400
S807        S  0.43865118  0.92795201  0.47193551    -0.05800
C808        C  0.46581613  0.98563163  0.46204183    -0.09300
C809        C  0.48664240  0.02976741  0.47094554    -0.25900
S810        S  0.50554915  0.06726501  0.52847879    -0.03100
C811        C  0.47835411  0.01005330  0.53854088    -0.16500
C812        C  0.45699752  0.96540753  0.52980056    -0.14500
H813        H  0.42626458  0.90112863  0.50456096     0.20800
H814        H  0.51724537  0.09346025  0.49607071     0.16900
H815        H  0.50533600  0.06927364  0.46672688     0.19400
H816        H  0.43829702  0.92610765  0.53417589     0.12700
C817        C  0.05663224  0.55799907  0.51205342     0.16600
C818        C  0.06357013  0.57661131  0.49725468    -0.32400
C819        C  0.04448276  0.53978078  0.48562758     0.21000
C820        C  0.01983102  0.48686316  0.48859945     0.03200
C821        C  0.01302853  0.46830648  0.50336339    -0.22200
C822        C  0.03188660  0.50505109  0.51496430     0.12400
S823        S  0.07558502  0.59602712  0.52779213    -0.05800
C824        C  0.04946186  0.53987058  0.53836410    -0.09300
C825        C  0.02782012  0.49443329  0.53001545    -0.25900
S826        S  0.99954120  0.44841751  0.47301148    -0.03100
C827        C  0.02452275  0.50415767  0.46230527    -0.16500
C828        C  0.04722711  0.54998275  0.47052187    -0.14500
H829        H  0.08267107  0.61790024  0.49491238     0.20800
H830        H  0.99360676  0.42700229  0.50571200     0.16900
H831        H  0.00915553  0.45557193  0.53471474     0.19400
H832        H  0.06507986  0.58863625  0.46570470     0.12700
C833        C  0.75147095  0.53383468  0.41675874     0.16600
C834        C  0.80561399  0.55562306  0.41680634    -0.32400
C835        C  0.82533353  0.52144554  0.41686675     0.21000
C836        C  0.79268465  0.46794427  0.41689274     0.03200
C837        C  0.73853845  0.44615203  0.41684735    -0.22200
C838        C  0.71882142  0.48033454  0.41678465     0.12400
S839        S  0.71986192  0.56861113  0.41666026    -0.05800
C840        C  0.66200529  0.51043294  0.41667260    -0.09300
C841        C  0.66741042  0.46666265  0.41674730    -0.25900
S842        S  0.82430578  0.43318341  0.41699872    -0.03100
C843        C  0.88216383  0.49137577  0.41699385    -0.16500
C844        C  0.87675110  0.53513412  0.41691029    -0.14500
H845        H  0.83125092  0.59738261  0.41679210     0.20800
H846        H  0.71290068  0.40439163  0.41686590     0.16900
H847        H  0.63542347  0.42693509  0.41676241     0.19400
H848        H  0.90873445  0.57486239  0.41690773     0.12700
C849        C  0.29370998  0.46867100  0.41664202     0.16600
C850        C  0.23945049  0.44569585  0.41615812    -0.32400
C851        C  0.21838502  0.47859070  0.41726362     0.21000
C852        C  0.24990583  0.53195646  0.41883944     0.03200
C853        C  0.30414792  0.55490420  0.41938138    -0.22200
C854        C  0.32522523  0.52204960  0.41818635     0.12400
S855        S  0.32679419  0.43555614  0.41538826    -0.05800
C856        C  0.38374469  0.49427758  0.41689248    -0.09300
C857        C  0.37700977  0.53702896  0.41829671    -0.25900
S858        S  0.21691978  0.56523251  0.41973791    -0.03100
C859        C  0.16000616  0.50665687  0.41790595    -0.16500
C860        C  0.16665882  0.46377429  0.41678733    -0.14500
H861        H  0.21476192  0.40405431  0.41489112     0.20800
H862        H  0.32884791  0.59657435  0.42056767     0.16900
H863        H  0.40827848  0.57686276  0.41940903     0.19400
H864        H  0.13540272  0.42400166  0.41552387     0.12700
C865        C  0.98985786  0.03585251  0.48783599     0.16600
C866        C  0.00243759  0.05940252  0.50202983    -0.32400
C867        C  0.98451495  0.02680642  0.51466283     0.21000
C868        C  0.95523530  0.97318004  0.51323570     0.03200
C869        C  0.94273521  0.94964423  0.49905044    -0.22200
C870        C  0.96081647  0.98220983  0.48642361     0.12400
S871        S  0.00793052  0.06848647  0.47113416    -0.05800
C872        C  0.97629030  0.00919283  0.46214397    -0.09300
C873        C  0.95298618  0.96665867  0.47170485    -0.25900
S874        S  0.93717558  0.94042532  0.52990316    -0.03100
C875        C  0.96958545  0.99958374  0.53892485    -0.16500
C876        C  0.99293313  0.04222661  0.52939770    -0.14500
H877        H  0.02526109  0.10126493  0.50317554     0.20800
H878        H  0.92001951  0.90777430  0.49790603     0.16900
H879        H  0.93143305  0.92650292  0.46808330     0.19400
H880        H  0.01496894  0.08231807  0.53305058     0.12700
C881        C  0.74251287  0.96157759  0.41634770     0.16600
C882        C  0.68817799  0.93838761  0.41620188    -0.32400
C883        C  0.66703382  0.97134956  0.41663367     0.21000
C884        C  0.69859668  0.02497436  0.41719372     0.03200
C885        C  0.75286821  0.04813276  0.41728991    -0.22200
C886        C  0.77399633  0.01521827  0.41683968     0.12400
S887        S  0.77576762  0.92847197  0.41605136    -0.05800
C888        C  0.83269837  0.98755339  0.41654951    -0.09300
C889        C  0.82582055  0.03038985  0.41690702    -0.25900
S890        S  0.66563319  0.05828047  0.41771789    -0.03100
C891        C  0.60858645  0.99939712  0.41713417    -0.16500
C892        C  0.61520728  0.95637582  0.41658603    -0.14500
H893        H  0.66348835  0.89651530  0.41580330     0.20800
H894        H  0.77755651  0.09000205  0.41771841     0.16900
H895        H  0.85703459  0.07045665  0.41731101     0.19400
H896        H  0.58385541  0.91637726  0.41616183     0.12700
C897        C  0.20125334  0.02901582  0.41662819     0.16600
C898        C  0.25537540  0.05070709  0.41604860    -0.32400
C899        C  0.27505976  0.01649219  0.41646518     0.21000
C900        C  0.24237772  0.96308708  0.41736561     0.03200
C901        C  0.18832160  0.94143482  0.41795424    -0.22200
C902        C  0.16865904  0.97561306  0.41758216     0.12400
S903        S  0.16954521  0.06370694  0.41623951    -0.05800
C904        C  0.11179100  0.00558291  0.41739542    -0.09300
C905        C  0.11730216  0.96194266  0.41804224    -0.25900
S906        S  0.27378369  0.92816946  0.41773252    -0.03100
C907        C  0.33166001  0.98613198  0.41673546    -0.16500
C908        C  0.32642719  0.02998145  0.41611644    -0.14500
H909        H  0.28100429  0.09239049  0.41532384     0.20800
H910        H  0.16269274  0.89975162  0.41868464     0.16900
H911        H  0.08539916  0.92226191  0.41874861     0.19400
H912        H  0.35847979  0.06959851  0.41546745     0.12700
C913        C  0.47630847  0.49645838  0.17951689     0.16600
C914        C  0.45350617  0.48673622  0.16525690    -0.32400
C915        C  0.48605037  0.49685096  0.15280430     0.21000
C916        C  0.53905604  0.51610384  0.15442899     0.03200
C917        C  0.56195505  0.52603934  0.16870911    -0.22200
C918        C  0.52930280  0.51570616  0.18118198     0.12400
S919        S  0.44315827  0.48565417  0.19599933    -0.05800
C920        C  0.50127241  0.50727987  0.20527723    -0.09300
C921        C  0.54394084  0.52221172  0.19597419    -0.25900
S922        S  0.57168951  0.52584367  0.13786534    -0.03100
C923        C  0.51317661  0.50351549  0.12868994    -0.16500
C924        C  0.47096041  0.48946838  0.13806841    -0.14500
H925        H  0.41213276  0.47164742  0.16392793     0.20800
H926        H  0.60330021  0.54095625  0.17004069     0.16900
H927        H  0.58340665  0.53651459  0.19982776     0.19400
H928        H  0.43136241  0.47492655  0.13430386     0.12700
C929        C  0.49808244  0.47305905  0.34578474     0.16600
C930        C  0.47988969  0.45262904  0.33143859    -0.32400
C931        C  0.50148150  0.48626460  0.31912839     0.21000
C932        C  0.54022801  0.53767430  0.32097921     0.03200
C933        C  0.55786945  0.55828127  0.33533157    -0.22200
C934        C  0.53562851  0.52488234  0.34765240     0.12400
S935        S  0.47678491  0.43874878  0.36216593    -0.05800
C936        C  0.51795037  0.49515736  0.37164609    -0.09300
C937        C  0.54693281  0.53788623  0.36247933    -0.25900
S938        S  0.56319639  0.57148008  0.30459258    -0.10300
C939        C  0.51917542  0.51616769  0.29520757    -0.16500
C940        C  0.48865538  0.47388821  0.30432479    -0.14500
H941        H  0.45013246  0.41235158  0.32994098     0.20800
H942        H  0.58761012  0.59856832  0.33683015     0.16900
H943        H  0.57468367  0.57645130  0.36645833     0.19400
H944        H  0.45954467  0.43591738  0.30030021     0.12700
C945        C  0.45734181  0.77079773  0.25029012     0.16600
C946        C  0.43812252  0.71699335  0.25043844    -0.32400
C947        C  0.47443511  0.69983253  0.25038262     0.21000
C948        C  0.52751590  0.73463544  0.25016219     0.03200
C949        C  0.54672269  0.78841809  0.25007517    -0.22200
C950        C  0.51043216  0.80557801  0.25015871     0.12400
S951        S  0.41977928  0.79951326  0.25022465    -0.05800
C952        C  0.47622144  0.85906542  0.25008155    -0.09300
C953        C  0.52150398  0.85627235  0.25008054    -0.25900
S954        S  0.56515157  0.70601964  0.24998827    -0.03100
C955        C  0.50879815  0.64643873  0.25027783    -0.16500
C956        C  0.46344891  0.64914970  0.25048164    -0.14500
H957        H  0.39668840  0.68970312  0.25056587     0.20800
H958        H  0.58815555  0.81570805  0.24992525     0.16900
H959        H  0.56048853  0.88957690  0.24997913     0.19400
H960        H  0.42449156  0.61580579  0.25064754     0.12700
C961        C  0.45721974  0.19968819  0.24992800     0.16600
C962        C  0.43836115  0.23459219  0.24973813    -0.32400
C963        C  0.47493766  0.28796295  0.24997969     0.21000
C964        C  0.52794785  0.30590334  0.25035372     0.03200
C965        C  0.54679773  0.27100346  0.25055605    -0.22200
C966        C  0.51022781  0.21764039  0.25035087     0.12400
S967        S  0.41931812  0.13342546  0.24968811    -0.05800
C968        C  0.47551467  0.12983523  0.25019888    -0.09300
C969        C  0.52094012  0.17777184  0.25052192    -0.25900
S970        S  0.56589333  0.37215303  0.25056537    -0.03100
C971        C  0.50972204  0.37577979  0.25020047    -0.16500
C972        C  0.46425692  0.32785870  0.24990455    -0.14500
H973        H  0.39699217  0.22076723  0.24942922     0.20800
H974        H  0.58816613  0.28482928  0.25087145     0.16900
H975        H  0.55983282  0.18319862  0.25084041     0.19400
H976        H  0.42537339  0.32246750  0.24964400     0.12700
C977        C  0.51518306  0.01196376  0.17936510     0.16600
C978        C  0.53913714  0.02231239  0.16520586    -0.32400
C979        C  0.50683292  0.00556689  0.15250255     0.21000
C980        C  0.45309749  0.97981797  0.15384861     0.03200
C981        C  0.42917027  0.96954545  0.16799511    -0.22200
C982        C  0.46144374  0.98614544  0.18068868     0.12400
S983        S  0.54740921  0.02858089  0.19613349    -0.05800
C984        C  0.48785256  0.00034866  0.20504511    -0.09300
C985        C  0.44550445  0.97937690  0.19539542    -0.25900
S986        S  0.42069369  0.96257635  0.13713400    -0.03100
C987        C  0.48011220  0.99020433  0.12817214    -0.16500
C988        C  0.52262311  0.01166504  0.13777380    -0.14500
H989        H  0.58108664  0.04236766  0.16414203     0.20800
H990        H  0.38721570  0.94934641  0.16906045     0.16900
H991        H  0.40521045  0.95998694  0.19894517     0.19400
H992        H  0.56285788  0.03069417  0.13417997     0.12700
C993        C  0.44596430  0.96181237  0.32089307     0.16600
C994        C  0.42987393  0.93978230  0.33522241    -0.32400
C995        C  0.45445094  0.97161437  0.34769381     0.21000
C996        C  0.49287611  0.02320763  0.34597640     0.03200
C997        C  0.50961419  0.04492220  0.33166815    -0.22200
C998        C  0.48554463  0.01295196  0.31921354     0.12400
S999        S  0.42031521  0.93024808  0.30432344    -0.05800
C1000       C  0.46433887  0.98615523  0.29509573    -0.09300
C1001       C  0.49675705  0.02690203  0.30442042    -0.25900
S1002       S  0.51646410  0.05597230  0.36245995    -0.03100
C1003       C  0.47489222  0.99932795  0.37181429    -0.16500
C1004       C  0.44431468  0.95750032  0.36252837    -0.14500
H1005       H  0.39940863  0.89970744  0.33659047     0.20800
H1006       H  0.53997420  0.08504443  0.33030185     0.16900
H1007       H  0.52654025  0.06486045  0.30055904     0.19400
H1008       H  0.41579301  0.91905923  0.36642242     0.12700
C1009       C  0.97868454  0.49168645  0.17915432     0.16600
C1010       C  0.95651353  0.47725371  0.16481439    -0.32400
C1011       C  0.98984320  0.49699336  0.15236808     0.21000
C1012       C  0.04295065  0.52978532  0.15406932     0.03200
C1013       C  0.06516222  0.54435508  0.16843547    -0.22200
C1014       C  0.03179193  0.52441468  0.18090709     0.12400
S1015       S  0.94485213  0.47133272  0.19564609    -0.05800
C1016       C  0.00285747  0.50700815  0.20508454    -0.09300
C1017       C  0.04591460  0.53332727  0.19577507    -0.25900
S1018       S  0.07656454  0.54902055  0.13747414    -0.03100
C1019       C  0.01837004  0.51245429  0.12816042    -0.16500
C1020       C  0.97554283  0.48702529  0.13756564    -0.14500
H1021       H  0.91507543  0.45153758  0.16341701     0.20800
H1022       H  0.10663592  0.56984304  0.16983390     0.16900
H1023       H  0.08548055  0.55748777  0.19967642     0.19400
H1024       H  0.93593632  0.46227818  0.13377253     0.12700
C1025       C  0.99379588  0.47037269  0.34623330     0.16600
C1026       C  0.97351009  0.45111291  0.33192258    -0.32400
C1027       C  0.99918285  0.48269349  0.31947723     0.21000
C1028       C  0.04366613  0.53084441  0.32119605     0.03200
C1029       C  0.06343721  0.55043595  0.33550922    -0.22200
C1030       C  0.03722386  0.51928957  0.34795859     0.12400
S1031       S  0.96854025  0.43805181  0.36273473    -0.05800
C1032       C  0.01607453  0.49160751  0.37207499    -0.09300
C1033       C  0.04988892  0.53192734  0.36278021    -0.25900
S1034       S  0.07050841  0.56223740  0.30470064    -0.03100
C1035       C  0.02055979  0.51062258  0.29538053    -0.16500
C1036       C  0.98526980  0.47116406  0.30466167    -0.14500
H1037       H  0.93919590  0.41323192  0.33055297     0.20800
H1038       H  0.09774097  0.58832565  0.33688059     0.16900
H1039       H  0.08207122  0.56844040  0.36666350     0.19400
H1040       H  0.95184559  0.43562460  0.30075784     0.12700
C1041       C  0.96363049  0.77129071  0.25184489     0.16600
C1042       C  0.94278992  0.71726133  0.25115287    -0.32400
C1043       C  0.97756675  0.69830503  0.25205450     0.21000
C1044       C  0.03064131  0.73168584  0.25366910     0.03200
C1045       C  0.05138230  0.78559764  0.25449763    -0.22200
C1046       C  0.01671387  0.80455917  0.25347415     0.12400
S1047       S  0.92829237  0.80213454  0.25051058    -0.05800
C1048       C  0.98570006  0.86049920  0.25206599    -0.09300
C1049       C  0.02963113  0.85580661  0.25363156    -0.25900
S1050       S  0.06659415  0.70144171  0.25413205    -0.03100
C1051       C  0.00963471  0.64304731  0.25209390    -0.16500
C1052       C  0.96517534  0.64720734  0.25122809    -0.14500
H1053       H  0.90139265  0.69121535  0.24978416     0.20800
H1054       H  0.09285026  0.81168540  0.25567677     0.16900
H1055       H  0.06895080  0.88814661  0.25469638     0.19400
H1056       H  0.92607603  0.61474461  0.24985174     0.12700
C1057       C  0.96786341  0.20057087  0.24924860     0.16600
C1058       C  0.94732438  0.23401358  0.24939774    -0.32400
C1059       C  0.98252038  0.28764151  0.24932609     0.21000
C1060       C  0.03584136  0.30721259  0.24909784     0.03200
C1061       C  0.05641079  0.27373076  0.24896148    -0.22200
C1062       C  0.02117519  0.22003535  0.24904875     0.12400
S1063       S  0.93158389  0.13436185  0.24938802    -0.05800
C1064       C  0.98879565  0.13268220  0.24921586    -0.09300
C1065       C  0.03346573  0.18120457  0.24902504    -0.25900
S1066       S  0.07191215  0.37354041  0.24904581    -0.03100
C1067       C  0.01451323  0.37489128  0.24935213    -0.16500
C1068       C  0.97004060  0.32626447  0.24948665    -0.14500
H1069       H  0.90570650  0.21888458  0.24958546     0.20800
H1070       H  0.09802753  0.28886025  0.24881541     0.16900
H1071       H  0.07277749  0.18772076  0.24894991     0.19400
H1072       H  0.93064260  0.31950575  0.24970472     0.12700
C1073       C  0.95359232  0.97850048  0.15442419     0.16600
C1074       C  0.93121108  0.96970465  0.16877449    -0.32400
C1075       C  0.96452072  0.98314813  0.18120076     0.21000
C1076       C  0.01777786  0.00452880  0.17940702     0.03200
C1077       C  0.04018061  0.01341750  0.16505399    -0.22200
C1078       C  0.00685043  0.99990733  0.15262602     0.12400
S1079       S  0.91974171  0.96440308  0.13797584    -0.05800
C1080       C  0.97788990  0.98752840  0.12852140    -0.09300
C1081       C  0.02110386  0.00535507  0.13776692    -0.25900
S1082       S  0.05155820  0.01845366  0.19586618    -0.03100
C1083       C  0.99335818  0.99526778  0.20531001    -0.16500
C1084       C  0.95020916  0.97761612  0.19605456    -0.14500
H1085       H  0.88963701  0.95303022  0.17018831     0.20800
H1086       H  0.08175718  0.03010909  0.16364004     0.16900
H1087       H  0.06072242  0.02119598  0.13383926     0.19400
H1088       H  0.91060143  0.96195204  0.19997112     0.12700
C1089       C  0.00747977  0.02191327  0.32149702     0.16600
C1090       C  0.02600729  0.04104563  0.33591662    -0.32400
C1091       C  0.99612214  0.01172890  0.34818570     0.21000
C1092       C  0.95033759  0.96485870  0.34622550     0.03200
C1093       C  0.93138938  0.94608155  0.33177855    -0.22200
C1094       C  0.96078735  0.97596263  0.31948291     0.12400
S1095       S  0.03865698  0.05129341  0.30522048    -0.05800
C1096       C  0.98768305  0.00188800  0.29554898    -0.09300
C1097       C  0.94882557  0.96458162  0.30456251    -0.25900
S1098       S  0.92069512  0.93443356  0.36261573    -0.03100
C1099       C  0.96965954  0.98624296  0.37215037    -0.16500
C1100       C  0.00711679  0.02447415  0.36304129    -0.14500
H1101       H  0.06211134  0.07725262  0.33750250     0.20800
H1102       H  0.89531379  0.90985716  0.33019411     0.16900
H1103       H  0.91435734  0.93048721  0.30042395     0.19400
H1104       H  0.04071084  0.05960134  0.36709052     0.12700
loop_ 
_geom_bond_atom_site_label_1 
_geom_bond_atom_site_label_2 
_geom_bond_distance 
_geom_bond_site_symmetry_2 
_ccdc_geom_bond_type 
O1           Ni9   1.912       .  S
O1           C11   1.279   1_445  A
O2           Ni9   1.910       .  S
O2           C12   1.279   1_445  A
O3           Ni9   1.925   1_565  S
O3           C13   1.283   1_455  A
O4           Ni9   1.922       .  S
O4           C14   1.282   1_455  A
O5          Ni10   1.914   1_545  S
O5           C14   1.280       .  A
O6          Ni10   1.911       .  S
O6           C13   1.279       .  A
O7          Ni10   1.927       .  S
O7           C12   1.283       .  A
O8          Ni10   1.927       .  S
O8           C11   1.283       .  A
Ni9         Ni10   2.389   1_445  S
C11        C1083   1.474       .  S
C12        C1096   1.470   1_565  S
C13        C1048   1.472       .  S
C14        C1064   1.473       .  S
O15         Ni23   1.923       .  S
O15          C25   1.282   1_655  A
O16         Ni23   1.924       .  S
O16          C26   1.282   1_655  A
O17         Ni23   1.924       .  S
O17          C27   1.282   1_655  A
O18         Ni23   1.917       .  S
O18          C28   1.281   1_655  A
O19         Ni24   1.918       .  S
O19          C28   1.281       .  A
O20         Ni24   1.912       .  S
O20          C27   1.280       .  A
O21         Ni24   1.917       .  S
O21          C26   1.280       .  A
O22         Ni24   1.921       .  S
O22          C25   1.282       .  A
Ni23        Ni24   2.389   1_655  S
C25        C1016   1.477       .  S
C26        C1035   1.471       .  S
C27        C1051   1.472       .  S
C28        C1067   1.473       .  S
O29         Ni37   1.917       .  S
O29          C39   1.281   1_545  A
O30         Ni37   1.917       .  S
O30          C40   1.281   1_545  A
O31         Ni37   1.915       .  S
O31          C41   1.281       .  A
O32         Ni37   1.919   1_565  S
O32          C42   1.282       .  A
O33         Ni38   1.919       .  S
O33          C42   1.281       .  A
O34         Ni38   1.925   1_545  S
O34          C41   1.283       .  A
O35         Ni38   1.922       .  S
O35          C40   1.282       .  A
O36         Ni38   1.921       .  S
O36          C39   1.281       .  A
Ni37        Ni38   2.389   1_545  S
C39        C1000   1.468       .  S
C40         C984   1.474   1_565  S
C41         C968   1.475       .  S
C42         C952   1.474       .  S
O43         Ni51   1.916       .  S
O43          C53   1.281       .  A
O44         Ni51   1.919       .  S
O44          C54   1.281       .  A
O45         Ni51   1.918       .  S
O45          C55   1.281       .  A
O46         Ni51   1.914       .  S
O46          C56   1.281       .  A
O47         Ni52   1.926       .  S
O47          C56   1.283       .  A
O48         Ni52   1.921       .  S
O48          C55   1.282       .  A
O49         Ni52   1.913       .  S
O49          C54   1.279       .  A
O50         Ni52   1.915       .  S
O50          C53   1.280       .  A
Ni51        Ni52   2.390       .  S
C53         C920   1.469       .  S
C54         C939   1.464       .  S
C55         C955   1.474       .  S
C56         C971   1.475       .  S
O57         Ni65   1.919       .  S
O57          C67   1.281       .  A
O58         Ni65   1.920       .  S
O58          C68   1.282   1_565  A
O59         Ni65   1.911       .  S
O59          C69   1.279       .  A
O60         Ni65   1.915   1_455  S
O60          C70   1.281   1_565  A
O61         Ni66   1.916   1_455  S
O61          C70   1.281       .  A
O62         Ni66   1.922       .  S
O62          C69   1.283   1_545  A
O63         Ni66   1.916       .  S
O63          C68   1.280       .  A
O64         Ni66   1.916       .  S
O64          C67   1.281   1_545  A
Ni65        Ni66   2.390   1_565  S
C67        C1099   1.469       .  S
C68         C872   1.472       .  S
C69         C888   1.470       .  S
C70         C904   1.470       .  S
O71         Ni79   1.916   1_655  S
O71          C81   1.281       .  A
O72         Ni79   1.912       .  S
O72          C82   1.280       .  A
O73         Ni79   1.922       .  S
O73          C83   1.282       .  A
O74         Ni79   1.919       .  S
O74          C84   1.282       .  A
O75         Ni80   1.916   1_455  S
O75          C84   1.281       .  A
O76         Ni80   1.917       .  S
O76          C83   1.280   1_655  A
O77         Ni80   1.920   1_455  S
O77          C82   1.282       .  A
O78         Ni80   1.916       .  S
O78          C81   1.281       .  A
Ni79        Ni80   2.390   1_455  S
C81         C843   1.471       .  S
C82         C859   1.470       .  S
C83        C1032   1.472       .  S
C84         C827   1.472       .  S
O85         Ni93   1.916       .  S
O85          C95   1.281   1_545  A
O86         Ni93   1.916       .  S
O86          C96   1.281   1_545  A
O87         Ni93   1.911       .  S
O87          C97   1.280   1_545  A
O88         Ni93   1.915       .  S
O88          C98   1.281   1_545  A
O89         Ni94   1.917       .  S
O89          C98   1.281       .  A
O90         Ni94   1.921       .  S
O90          C97   1.282       .  A
O91         Ni94   1.920       .  S
O91          C96   1.281       .  A
O92         Ni94   1.920       .  S
O92          C95   1.282       .  A
Ni93        Ni94   2.390   1_545  S
C95        C1003   1.472       .  S
C96         C808   1.472       .  S
C97         C891   1.470       .  S
C98         C907   1.470       .  S
O99        Ni107   1.915       .  S
O99         C109   1.281       .  A
O100       Ni107   1.913       .  S
O100        C110   1.280       .  A
O101       Ni107   1.918       .  S
O101        C111   1.281       .  A
O102       Ni107   1.921       .  S
O102        C112   1.282       .  A
O103       Ni108   1.911       .  S
O103        C112   1.279       .  A
O104       Ni108   1.915       .  S
O104        C111   1.281       .  A
O105       Ni108   1.923       .  S
O105        C110   1.283       .  A
O106       Ni108   1.920       .  S
O106        C109   1.281       .  A
Ni107      Ni108   2.390       .  S
C109        C936   1.471       .  S
C110        C795   1.472       .  S
C111        C840   1.471       .  S
C112        C856   1.470       .  S
O113       Ni121   1.922       .  S
O113        C123   1.282   1_445  A
O114       Ni121   1.925       .  S
O114        C124   1.283   1_445  A
O115       Ni121   1.918   1_565  S
O115        C125   1.282   1_455  A
O116       Ni121   1.924       .  S
O116        C126   1.282   1_455  A
O117       Ni122   1.912   1_545  S
O117        C126   1.280       .  A
O118       Ni122   1.918       .  S
O118        C125   1.281       .  A
O119       Ni122   1.913       .  S
O119        C124   1.280       .  A
O120       Ni122   1.915       .  S
O120        C123   1.280       .  A
Ni121      Ni122   2.389   1_445  S
C123        C779   1.470       .  S
C124       C1080   1.474       .  S
C125        C744   1.472       .  S
C126        C760   1.472       .  S
O127       Ni135   1.926       .  S
O127        C137   1.283       .  A
O128       Ni135   1.924       .  S
O128        C138   1.283   1_455  A
O129       Ni135   1.914       .  S
O129        C139   1.280       .  A
O130       Ni135   1.913       .  S
O130        C140   1.279       .  A
O131       Ni136   1.924       .  S
O131        C140   1.283   1_655  A
O132       Ni136   1.921       .  S
O132        C139   1.282   1_655  A
O133       Ni136   1.918       .  S
O133        C138   1.280       .  A
O134       Ni136   1.917       .  S
O134        C137   1.281   1_655  A
Ni135      Ni136   2.389   1_455  S
C137       C1019   1.477       .  S
C138        C728   1.474       .  S
C139        C747   1.472       .  S
C140        C763   1.473       .  S
O141       Ni149   1.924       .  S
O141        C151   1.283   1_545  A
O142       Ni149   1.921       .  S
O142        C152   1.282   1_545  A
O143       Ni149   1.912       .  S
O143        C153   1.280       .  A
O144       Ni149   1.908   1_565  S
O144        C154   1.279       .  A
O145       Ni150   1.927       .  S
O145        C154   1.283       .  A
O146       Ni150   1.922   1_545  S
O146        C153   1.282       .  A
O147       Ni150   1.916       .  S
O147        C152   1.280       .  A
O148       Ni150   1.915       .  S
O148        C151   1.280       .  A
Ni149      Ni150   2.389   1_545  S
C151        C987   1.474       .  S
C152        C715   1.468       .  S
C153        C699   1.472       .  S
C154        C680   1.472       .  S
O155       Ni163   1.920       .  S
O155        C165   1.281       .  A
O156       Ni163   1.919       .  S
O156        C166   1.282       .  A
O157       Ni163   1.907       .  S
O157        C167   1.279       .  A
O158       Ni163   1.914       .  S
O158        C168   1.280       .  A
O159       Ni164   1.922       .  S
O159        C168   1.283       .  A
O160       Ni164   1.926       .  S
O160        C167   1.283       .  A
O161       Ni164   1.912       .  S
O161        C166   1.279       .  A
O162       Ni164   1.912       .  S
O162        C165   1.280       .  A
Ni163      Ni164   2.390       .  S
C165        C664   1.468       .  S
C166        C923   1.470       .  S
C167        C683   1.472       .  S
C168        C696   1.472       .  S
O169       Ni177   1.917       .  S
O169        C179   1.281       .  A
O170       Ni177   1.917       .  S
O170        C180   1.281       .  A
O171       Ni177   1.916   1_545  S
O171        C181   1.281       .  A
O172       Ni177   1.921   1_655  S
O172        C182   1.282       .  A
O173       Ni178   1.915   1_565  S
O173        C182   1.281       .  A
O174       Ni178   1.918   1_455  S
O174        C181   1.281       .  A
O175       Ni178   1.917       .  S
O175        C180   1.282   1_645  A
O176       Ni178   1.919       .  S
O176        C179   1.281   1_645  A
Ni177      Ni178   2.390   1_465  S
C179        C776   1.470       .  S
C180        C648   1.471       .  S
C181        C632   1.471       .  S
C182        C619   1.473       .  S
O183       Ni191   1.920       .  S
O183        C193   1.281       .  A
O184       Ni191   1.922       .  S
O184        C194   1.281       .  A
O185       Ni191   1.922   1_455  S
O185        C195   1.282       .  A
O186       Ni191   1.916       .  S
O186        C196   1.281       .  A
O187       Ni192   1.918   1_655  S
O187        C196   1.281       .  A
O188       Ni192   1.914       .  S
O188        C195   1.281       .  A
O189       Ni192   1.918       .  S
O189        C194   1.281   1_455  A
O190       Ni192   1.917       .  S
O190        C193   1.281   1_455  A
Ni191      Ni192   2.389   1_655  S
C193        C600   1.473       .  S
C194        C731   1.471   1_655  S
C195        C584   1.472       .  S
C196        C571   1.472       .  S
O197       Ni205   1.918       .  S
O197        C207   1.282   1_545  A
O198       Ni205   1.918       .  S
O198        C208   1.281   1_545  A
O199       Ni205   1.917       .  S
O199        C209   1.281       .  A
O200       Ni205   1.915   1_565  S
O200        C210   1.281       .  A
O201       Ni206   1.919       .  S
O201        C210   1.282       .  A
O202       Ni206   1.918   1_545  S
O202        C209   1.281       .  A
O203       Ni206   1.917       .  S
O203        C208   1.282       .  A
O204       Ni206   1.915       .  S
O204        C207   1.280       .  A
Ni205      Ni206   2.390   1_545  S
C207        C552   1.471       .  S
C208        C712   1.471       .  S
C209        C568   1.472       .  S
C210        C587   1.471       .  S
O211       Ni219   1.923       .  S
O211        C221   1.282       .  A
O212       Ni219   1.923       .  S
O212        C222   1.282       .  A
O213       Ni219   1.920       .  S
O213        C223   1.282       .  A
O214       Ni219   1.916       .  S
O214        C224   1.281       .  A
O215       Ni220   1.918       .  S
O215        C224   1.281       .  A
O216       Ni220   1.916       .  S
O216        C223   1.281       .  A
O217       Ni220   1.912       .  S
O217        C222   1.280       .  A
O218       Ni220   1.913       .  S
O218        C221   1.280       .  A
Ni219      Ni220   2.390       .  S
C221        C536   1.473       .  S
C222        C667   1.468       .  S
C223        C616   1.473       .  S
C224        C635   1.472       .  S
O225       Ni233   1.920   1_655  S
O225        C235   1.282       .  A
O226       Ni233   1.918       .  S
O226        C236   1.280   1_455  A
O227       Ni233   1.918       .  S
O227        C237   1.282       .  A
O228       Ni233   1.913   1_655  S
O228        C238   1.280       .  A
O229       Ni234   1.919       .  S
O229        C238   1.282   1_565  A
O230       Ni234   1.916   1_455  S
O230        C237   1.280   1_565  A
O231       Ni234   1.912       .  S
O231        C236   1.280   1_565  A
O232       Ni234   1.914       .  S
O232        C235   1.280   1_565  A
Ni233      Ni234   2.390   1_445  S
C235        C875   1.471   1_545  S
C236        C520   1.463       .  S
C237        C507   1.471   1_545  S
C238        C491   1.470       .  S
O239       Ni247   1.910       .  S
O239        C249   1.280       .  A
O240       Ni247   1.911       .  S
O240        C250   1.280       .  A
O241       Ni247   1.918       .  S
O241        C251   1.282       .  A
O242       Ni247   1.922   1_655  S
O242        C252   1.282       .  A
O243       Ni248   1.916   1_655  S
O243        C252   1.281       .  A
O244       Ni248   1.922       .  S
O244        C251   1.282       .  A
O245       Ni248   1.921       .  S
O245        C250   1.282       .  A
O246       Ni248   1.923       .  S
O246        C249   1.282       .  A
Ni247      Ni248   2.389       .  S
C249        C472   1.469       .  S
C250        C824   1.471       .  S
C251        C459   1.475       .  S
C252        C443   1.474       .  S
O253       Ni261   1.919       .  S
O253        C263   1.282   1_565  A
O254       Ni261   1.920       .  S
O254        C264   1.282   1_565  A
O255       Ni261   1.912       .  S
O255        C265   1.280   1_565  A
O256       Ni261   1.920       .  S
O256        C266   1.281   1_565  A
O257       Ni262   1.915       .  S
O257        C266   1.281       .  A
O258       Ni262   1.919       .  S
O258        C265   1.281       .  A
O259       Ni262   1.913       .  S
O259        C264   1.280       .  A
O260       Ni262   1.915       .  S
O260        C263   1.280       .  A
Ni261      Ni262   2.390   1_565  S
C263        C427   1.469       .  S
C264        C811   1.471       .  S
C265        C488   1.470       .  S
C266        C504   1.471       .  S
O267       Ni275   1.924       .  S
O267        C277   1.283       .  A
O268       Ni275   1.925       .  S
O268        C278   1.282       .  A
O269       Ni275   1.921       .  S
O269        C279   1.282       .  A
O270       Ni275   1.918       .  S
O270        C280   1.281       .  A
O271       Ni276   1.921       .  S
O271        C280   1.282       .  A
O272       Ni276   1.919       .  S
O272        C279   1.281       .  A
O273       Ni276   1.913       .  S
O273        C278   1.280       .  A
O274       Ni276   1.913       .  S
O274        C277   1.280       .  A
Ni275      Ni276   2.389       .  S
C277        C792   1.473       .  S
C278        C408   1.472       .  S
C279        C440   1.474       .  S
C280        C456   1.475       .  S
O281       Ni289   1.915       .  S
O281        C291   1.281   1_465  A
O282       Ni289   1.915       .  S
O282        C292   1.280   1_465  A
O283       Ni289   1.920   1_545  S
O283        C293   1.282       .  A
O284       Ni289   1.919   1_655  S
O284        C294   1.281       .  A
O285       Ni290   1.919   1_565  S
O285        C294   1.281       .  A
O286       Ni290   1.918   1_455  S
O286        C293   1.281       .  A
O287       Ni290   1.916       .  S
O287        C292   1.281       .  A
O288       Ni290   1.917       .  S
O288        C291   1.281       .  A
Ni289      Ni290   2.390   1_465  S
C291        C651   1.470       .  S
C292        C523   1.468       .  S
C293        C395   1.474       .  S
C294        C376   1.473       .  S
O295       Ni303   1.919       .  S
O295        C305   1.281   1_655  A
O296       Ni303   1.921       .  S
O296        C306   1.282   1_655  A
O297       Ni303   1.913   1_455  S
O297        C307   1.280       .  A
O298       Ni303   1.919       .  S
O298        C308   1.282       .  A
O299       Ni304   1.916   1_655  S
O299        C308   1.280       .  A
O300       Ni304   1.921       .  S
O300        C307   1.282       .  A
O301       Ni304   1.914       .  S
O301        C306   1.280       .  A
O302       Ni304   1.915       .  S
O302        C305   1.280       .  A
Ni303      Ni304   2.390   1_655  S
C305        C475   1.466       .  S
C306        C603   1.472       .  S
C307        C363   1.471       .  S
C308        C347   1.472       .  S
O309       Ni317   1.910       .  S
O309        C319   1.279   1_545  A
O310       Ni317   1.909       .  S
O310        C320   1.280   1_545  A
O311       Ni317   1.916       .  S
O311        C321   1.281       .  A
O312       Ni317   1.921   1_565  S
O312        C322   1.282       .  A
O313       Ni318   1.913       .  S
O313        C322   1.280       .  A
O314       Ni318   1.918   1_545  S
O314        C321   1.281       .  A
O315       Ni318   1.923       .  S
O315        C320   1.282       .  A
O316       Ni318   1.924       .  S
O316        C319   1.282       .  A
Ni317      Ni318   2.390   1_545  S
C319        C424   1.467       .  S
C320        C555   1.470       .  S
C321        C344   1.471       .  S
C322        C360   1.471       .  S
O323       Ni331   1.921       .  S
O323        C333   1.282       .  A
O324       Ni331   1.921       .  S
O324        C334   1.281       .  A
O325       Ni331   1.920       .  S
O325        C335   1.281       .  A
O326       Ni331   1.916       .  S
O326        C336   1.281       .  A
O327       Ni332   1.923       .  S
O327        C336   1.282       .  A
O328       Ni332   1.917       .  S
O328        C335   1.281       .  A
O329       Ni332   1.917       .  S
O329        C334   1.281       .  A
O330       Ni332   1.917       .  S
O330        C333   1.281       .  A
Ni331      Ni332   2.389       .  S
C333        C539   1.473       .  S
C334        C411   1.470       .  S
C335        C379   1.473       .  S
C336        C392   1.474       .  S
C337        S343   1.706       .  A
C337        C342   1.387       .  A
C337        C338   1.401       .  A
C338        C339   1.402       .  A
C338        H349   1.083       .  S
C339        C348   1.369       .  A
C339        C340   1.387       .  A
C340        S346   1.707       .  A
C340        C341   1.402       .  A
C341        C342   1.402       .  A
C341        H350   1.083       .  S
C342        C345   1.370       .  A
S343        C344   1.723       .  A
C344        C345   1.387       .  A
C345        H351   1.083       .  S
S346        C347   1.724       .  A
C347        C348   1.386       .  A
C348        H352   1.083       .  S
C353        S359   1.705       .  A
C353        C358   1.387       .  A
C353        C354   1.401       .  A
C354        C355   1.401       .  A
C354        H365   1.083       .  S
C355        C364   1.370       .  A
C355        C356   1.387       .  A
C356        S362   1.706       .  A
C356        C357   1.401       .  A
C357        C358   1.402       .  A
C357        H366   1.083       .  S
C358        C361   1.371       .  A
S359        C360   1.723       .  A
C360        C361   1.387       .  A
C361        H367   1.083       .  S
S362        C363   1.723       .  A
C363        C364   1.386       .  A
C364        H368   1.083       .  S
C369        S375   1.707       .  A
C369        C374   1.387       .  A
C369        C370   1.401       .  A
C370        C371   1.402       .  A
C370        H381   1.083       .  S
C371        C380   1.370       .  A
C371        C372   1.387       .  A
C372        S378   1.709       .  A
C372        C373   1.403       .  A
C373        C374   1.404       .  A
C373        H382   1.083       .  S
C374        C377   1.372       .  A
S375        C376   1.723       .  A
C376        C377   1.388       .  A
C377        H383   1.083       .  S
S378        C379   1.724       .  A
C379        C380   1.387       .  A
C380        H384   1.083       .  S
C385        S391   1.706       .  A
C385        C390   1.387       .  A
C385        C386   1.401       .  A
C386        C387   1.402       .  A
C386        H397   1.083       .  S
C387        C396   1.371       .  A
C387        C388   1.387       .  A
C388        S394   1.708       .  A
C388        C389   1.403       .  A
C389        C390   1.404       .  A
C389        H398   1.083       .  S
C390        C393   1.372       .  A
S391        C392   1.723       .  A
C392        C393   1.388       .  A
C393        H399   1.083       .  S
S394        C395   1.725       .  A
C395        C396   1.387       .  A
C396        H400   1.083       .  S
C401        S407   1.709       .  A
C401        C406   1.387       .  A
C401        C402   1.402       .  A
C402        C403   1.403       .  A
C402        H413   1.083       .  S
C403        C412   1.370       .  A
C403        C404   1.387       .  A
C404        S410   1.709       .  A
C404        C405   1.402       .  A
C405        C406   1.403       .  A
C405        H414   1.083       .  S
C406        C409   1.370       .  A
S407        C408   1.722       .  A
C408        C409   1.387       .  A
C409        H415   1.083       .  S
S410        C411   1.722       .  A
C411        C412   1.386       .  A
C412        H416   1.083       .  S
C417        S423   1.709       .  A
C417        C422   1.387   1_565  A
C417        C418   1.401       .  A
C418        C419   1.403       .  A
C418        H429   1.083       .  S
C419        C428   1.370       .  A
C419        C420   1.387   1_565  A
C420        S426   1.707       .  A
C420        C421   1.401       .  A
C421        C422   1.402       .  A
C421        H430   1.083       .  S
C422        C425   1.368       .  A
S423        C424   1.721       .  A
C424        C425   1.385   1_565  A
C425        H431   1.083       .  S
S426        C427   1.722       .  A
C427        C428   1.386   1_545  A
C428        H432   1.083       .  S
C433        S439   1.707       .  A
C433        C438   1.387       .  A
C433        C434   1.402       .  A
C434        C435   1.403       .  A
C434        H445   1.083       .  S
C435        C444   1.372       .  A
C435        C436   1.387       .  A
C436        S442   1.707       .  A
C436        C437   1.402       .  A
C437        C438   1.403       .  A
C437        H446   1.083       .  S
C438        C441   1.372       .  A
S439        C440   1.724       .  A
C440        C441   1.387       .  A
C441        H447   1.083       .  S
S442        C443   1.724       .  A
C443        C444   1.387       .  A
C444        H448   1.083       .  S
C449        S455   1.708       .  A
C449        C454   1.387       .  A
C449        C450   1.401       .  A
C450        C451   1.403       .  A
C450        H461   1.083       .  S
C451        C460   1.371       .  A
C451        C452   1.387       .  A
C452        S458   1.709       .  A
C452        C453   1.403       .  A
C453        C454   1.404       .  A
C453        H462   1.083       .  S
C454        C457   1.372       .  A
S455        C456   1.723       .  A
C456        C457   1.388       .  A
C457        H463   1.083       .  S
S458        C459   1.725       .  A
C459        C460   1.387       .  A
C460        H464   1.083       .  S
C465        S471   1.711       .  A
C465        C470   1.387       .  A
C465        C466   1.403       .  A
C466        C467   1.405       .  A
C466        H477   1.083       .  S
C467        C476   1.372       .  A
C467        C468   1.388       .  A
C468        S474   1.704       .  A
C468        C469   1.398       .  A
C469        C470   1.399       .  A
C469        H478   1.083       .  S
C470        C473   1.366       .  A
S471        C472   1.724       .  A
C472        C473   1.384       .  A
C473        H479   1.083       .  S
S474        C475   1.720       .  A
C475        C476   1.387       .  A
C476        H480   1.083       .  S
C481        S487   1.703       .  A
C481        C486   1.387   1_565  A
C481        C482   1.398       .  A
C482        C483   1.399       .  A
C482        H493   1.083       .  S
C483        C492   1.367       .  A
C483        C484   1.387   1_565  A
C484        S490   1.708       .  A
C484        C485   1.403       .  A
C485        C486   1.404       .  A
C485        H494   1.083       .  S
C486        C489   1.372       .  A
S487        C488   1.721   1_565  A
C488        C489   1.388       .  A
C489        H495   1.083       .  S
S490        C491   1.725       .  A
C491        C492   1.384   1_545  A
C492        H496   1.083       .  S
C497        S503   1.704       .  A
C497        C502   1.387   1_545  A
C497        C498   1.399       .  A
C498        C499   1.400       .  A
C498        H509   1.083       .  S
C499        C508   1.368       .  A
C499        C500   1.387   1_545  A
C500        S506   1.709       .  A
C500        C501   1.403       .  A
C501        C502   1.404       .  A
C501        H510   1.083       .  S
C502        C505   1.372       .  A
S503        C504   1.722       .  A
C504        C505   1.388   1_545  A
C505        H511   1.083       .  S
S506        C507   1.725       .  A
C507        C508   1.385   1_565  A
C508        H512   1.083       .  S
C513        S519   1.708       .  A
C513        C518   1.388   1_545  A
C513        C514   1.401       .  A
C514        C515   1.402       .  A
C514        H525   1.083       .  S
C515        C524   1.369       .  A
C515        C516   1.387   1_545  A
C516        S522   1.705   1_655  A
C516        C517   1.399   1_655  A
C517        C518   1.400   1_455  A
C517        H526   1.083       .  S
C518        C521   1.367       .  A
S519        C520   1.721       .  A
C520        C521   1.383   1_545  A
C521        H527   1.083       .  S
S522        C523   1.722   1_465  A
C523        C524   1.386       .  A
C524        H528   1.083       .  S
C529        S535   1.705       .  A
C529        C534   1.387       .  A
C529        C530   1.401       .  A
C530        C531   1.402       .  A
C530        H541   1.083       .  S
C531        C540   1.371       .  A
C531        C532   1.387       .  A
C532        S538   1.707       .  A
C532        C533   1.403       .  A
C533        C534   1.403       .  A
C533        H542   1.083       .  S
C534        C537   1.372       .  A
S535        C536   1.723       .  A
C536        C537   1.387       .  A
C537        H543   1.083       .  S
S538        C539   1.724       .  A
C539        C540   1.387       .  A
C540        H544   1.083       .  S
C545        S551   1.708       .  A
C545        C550   1.387   1_565  A
C545        C546   1.403       .  A
C546        C547   1.404       .  A
C546        H557   1.083       .  S
C547        C556   1.372       .  A
C547        C548   1.387   1_565  A
C548        S554   1.702       .  A
C548        C549   1.398       .  A
C549        C550   1.399       .  A
C549        H558   1.083       .  S
C550        C553   1.368       .  A
S551        C552   1.725       .  A
C552        C553   1.384   1_565  A
C553        H559   1.083       .  S
S554        C555   1.722   1_545  A
C555        C556   1.388       .  A
C556        H560   1.083       .  S
C561        S567   1.705       .  A
C561        C566   1.387       .  A
C561        C562   1.400       .  A
C562        C563   1.401       .  A
C562        H573   1.083       .  S
C563        C572   1.368       .  A
C563        C564   1.387       .  A
C564        S570   1.708       .  A
C564        C565   1.403       .  A
C565        C566   1.404       .  A
C565        H574   1.083       .  S
C566        C569   1.371       .  A
S567        C568   1.722       .  A
C568        C569   1.388       .  A
C569        H575   1.083       .  S
S570        C571   1.724       .  A
C571        C572   1.386       .  A
C572        H576   1.083       .  S
C577        S583   1.709       .  A
C577        C582   1.387       .  A
C577        C578   1.402       .  A
C578        C579   1.404       .  A
C578        H589   1.083       .  S
C579        C588   1.371       .  A
C579        C580   1.387       .  A
C580        S586   1.706       .  A
C580        C581   1.400       .  A
C581        C582   1.401       .  A
C581        H590   1.083       .  S
C582        C585   1.368       .  A
S583        C584   1.724       .  A
C584        C585   1.386       .  A
C585        H591   1.083       .  S
S586        C587   1.722       .  A
C587        C588   1.388       .  A
C588        H592   1.083       .  S
C593        S599   1.707       .  A
C593        C598   1.387   1_655  A
C593        C594   1.402       .  A
C594        C595   1.402       .  A
C594        H605   1.083       .  S
C595        C604   1.371       .  A
C595        C596   1.387   1_655  A
C596        S602   1.706       .  A
C596        C597   1.401       .  A
C597        C598   1.402       .  A
C597        H606   1.083       .  S
C598        C601   1.370       .  A
S599        C600   1.723       .  A
C600        C601   1.387   1_655  A
C601        H607   1.083       .  S
S602        C603   1.723       .  A
C603        C604   1.387   1_455  A
C604        H608   1.083       .  S
C609        S615   1.708       .  A
C609        C614   1.387       .  A
C609        C610   1.401       .  A
C610        C611   1.403       .  A
C610        H621   1.083       .  S
C611        C620   1.370       .  A
C611        C612   1.387       .  A
C612        S618   1.708       .  A
C612        C613   1.401       .  A
C613        C614   1.403       .  A
C613        H622   1.083       .  S
C614        C617   1.370       .  A
S615        C616   1.723       .  A
C616        C617   1.387       .  A
C617        H623   1.083       .  S
S618        C619   1.723       .  A
C619        C620   1.387       .  A
C620        H624   1.083       .  S
C625        S631   1.707       .  A
C625        C630   1.387       .  A
C625        C626   1.401       .  A
C626        C627   1.402       .  A
C626        H637   1.083       .  S
C627        C636   1.369       .  A
C627        C628   1.387       .  A
C628        S634   1.707       .  A
C628        C629   1.401       .  A
C629        C630   1.402       .  A
C629        H638   1.083       .  S
C630        C633   1.369       .  A
S631        C632   1.723       .  A
C632        C633   1.387       .  A
C633        H639   1.083       .  S
S634        C635   1.723       .  A
C635        C636   1.387       .  A
C636        H640   1.083       .  S
C641        S647   1.707       .  A
C641        C646   1.387   1_465  A
C641        C642   1.401       .  A
C642        C643   1.402       .  A
C642        H653   1.083       .  S
C643        C652   1.370       .  A
C643        C644   1.387   1_465  A
C644        S650   1.706       .  A
C644        C645   1.400       .  A
C645        C646   1.401       .  A
C645        H654   1.083       .  S
C646        C649   1.369       .  A
S647        C648   1.724       .  A
C648        C649   1.386   1_465  A
C649        H655   1.083       .  S
S650        C651   1.722       .  A
C651        C652   1.387   1_645  A
C652        H656   1.083       .  S
C657        S663   1.710       .  A
C657        C662   1.387       .  A
C657        C658   1.404   1_554  A
C658        C659   1.405       .  A
C658        H669   1.083       .  S
C659        C668   1.373       .  A
C659        C660   1.387       .  A
C660        S666   1.703       .  A
C660        C661   1.398   1_556  A
C661        C662   1.399       .  A
C661        H670   1.083       .  S
C662        C665   1.366       .  A
S663        C664   1.724       .  A
C664        C665   1.384       .  A
C665        H671   1.083       .  S
S666        C667   1.720       .  A
C667        C668   1.387       .  A
C668        H672   1.083       .  S
C673        S679   1.709       .  A
C673        C678   1.387       .  A
C673        C674   1.400       .  A
C674        C675   1.402       .  A
C674        H685   1.083       .  S
C675        C684   1.367       .  A
C675        C676   1.387       .  A
C676        S682   1.710       .  A
C676        C677   1.401       .  A
C677        C678   1.403       .  A
C677        H686   1.083       .  S
C678        C681   1.368       .  A
S679        C680   1.722       .  A
C680        C681   1.388       .  A
C681        H687   1.083       .  S
S682        C683   1.723       .  A
C683        C684   1.387       .  A
C684        H688   1.083       .  S
C689        S695   1.706       .  A
C689        C694   1.387       .  A
C689        C690   1.402       .  A
C690        C691   1.402       .  A
C690        H701   1.083       .  S
C691        C700   1.371       .  A
C691        C692   1.387       .  A
C692        S698   1.705       .  A
C692        C693   1.401       .  A
C693        C694   1.401       .  A
C693        H702   1.083       .  S
C694        C697   1.371       .  A
S695        C696   1.724       .  A
C696        C697   1.386       .  A
C697        H703   1.083       .  S
S698        C699   1.723       .  A
C699        C700   1.387       .  A
C700        H704   1.083       .  S
C705        S711   1.710       .  A
C705        C710   1.387   1_545  A
C705        C706   1.403   1_556  A
C706        C707   1.404   1_545  A
C706        H717   1.083       .  S
C707        C716   1.372       .  A
C707        C708   1.387       .  A
C708        S714   1.706       .  A
C708        C709   1.400   1_554  A
C709        C710   1.401       .  A
C709        H718   1.083       .  S
C710        C713   1.368       .  A
S711        C712   1.724   1_545  A
C712        C713   1.385       .  A
C713        H719   1.083       .  S
S714        C715   1.720       .  A
C715        C716   1.387       .  A
C716        H720   1.083   1_565  S
C721        S727   1.710       .  A
C721        C726   1.387   1_655  A
C721        C722   1.405   1_554  A
C722        C723   1.405       .  A
C722        H733   1.083       .  S
C723        C732   1.374       .  A
C723        C724   1.387   1_655  A
C724        S730   1.705       .  A
C724        C725   1.400   1_556  A
C725        C726   1.401       .  A
C725        H734   1.083       .  S
C726        C729   1.371       .  A
S727        C728   1.726       .  A
C728        C729   1.385   1_655  A
C729        H735   1.083       .  S
S730        C731   1.721       .  A
C731        C732   1.388   1_455  A
C732        H736   1.083       .  S
C737        S743   1.708       .  A
C737        C742   1.387   1_655  A
C737        C738   1.402       .  A
C738        C739   1.403       .  A
C738        H749   1.083       .  S
C739        C748   1.372       .  A
C739        C740   1.387   1_655  A
C740        S746   1.705       .  A
C740        C741   1.401       .  A
C741        C742   1.401       .  A
C741        H750   1.083       .  S
C742        C745   1.370       .  A
S743        C744   1.724       .  A
C744        C745   1.386   1_655  A
C745        H751   1.083       .  S
S746        C747   1.723       .  A
C747        C748   1.387   1_455  A
C748        H752   1.083       .  S
C753        S759   1.704       .  A
C753        C758   1.387   1_655  A
C753        C754   1.400       .  A
C754        C755   1.400       .  A
C754        H765   1.083       .  S
C755        C764   1.370       .  A
C755        C756   1.387   1_655  A
C756        S762   1.707       .  A
C756        C757   1.403       .  A
C757        C758   1.404       .  A
C757        H766   1.083       .  S
C758        C761   1.373       .  A
S759        C760   1.723       .  A
C760        C761   1.388   1_655  A
C761        H767   1.083       .  S
S762        C763   1.725       .  A
C763        C764   1.385   1_455  A
C764        H768   1.083       .  S
C769        S775   1.707       .  A
C769        C774   1.387   1_455  A
C769        C770   1.402   1_556  A
C770        C771   1.403       .  A
C770        H781   1.083       .  S
C771        C780   1.372       .  A
C771        C772   1.387   1_455  A
C772        S778   1.706       .  A
C772        C773   1.401   1_554  A
C773        C774   1.402       .  A
C773        H782   1.083       .  S
C774        C777   1.371       .  A
S775        C776   1.723       .  A
C776        C777   1.386   1_455  A
C777        H783   1.083       .  S
S778        C779   1.722       .  A
C779        C780   1.386   1_655  A
C780        H784   1.083       .  S
C785        S791   1.705       .  A
C785        C790   1.387       .  A
C785        C786   1.402       .  A
C786        C787   1.402       .  A
C786        H797   1.083       .  S
C787        C796   1.371       .  A
C787        C788   1.387       .  A
C788        S794   1.706       .  A
C788        C789   1.402       .  A
C789        C790   1.402       .  A
C789        H798   1.083       .  S
C790        C793   1.372       .  A
S791        C792   1.724       .  A
C792        C793   1.387       .  A
C793        H799   1.083       .  S
S794        C795   1.724       .  A
C795        C796   1.386       .  A
C796        H800   1.083       .  S
C801        S807   1.709       .  A
C801        C806   1.387   1_565  A
C801        C802   1.403       .  A
C802        C803   1.404       .  A
C802        H813   1.083       .  S
C803        C812   1.372       .  A
C803        C804   1.387   1_565  A
C804        S810   1.704       .  A
C804        C805   1.399       .  A
C805        C806   1.400       .  A
C805        H814   1.083       .  S
C806        C809   1.368       .  A
S807        C808   1.725       .  A
C808        C809   1.385   1_565  A
C809        H815   1.083       .  S
S810        C811   1.722       .  A
C811        C812   1.388   1_545  A
C812        H816   1.083       .  S
C817        S823   1.709       .  A
C817        C822   1.387       .  A
C817        C818   1.402       .  A
C818        C819   1.404       .  A
C818        H829   1.083       .  S
C819        C828   1.371       .  A
C819        C820   1.387       .  A
C820        S826   1.705   1_455  A
C820        C821   1.399       .  A
C821        C822   1.400       .  A
C821        H830   1.083   1_455  S
C822        C825   1.367       .  A
S823        C824   1.724       .  A
C824        C825   1.386       .  A
C825        H831   1.083       .  S
S826        C827   1.722   1_655  A
C827        C828   1.388       .  A
C828        H832   1.083       .  S
C833        S839   1.707       .  A
C833        C838   1.387       .  A
C833        C834   1.401       .  A
C834        C835   1.402       .  A
C834        H845   1.083       .  S
C835        C844   1.369       .  A
C835        C836   1.387       .  A
C836        S842   1.707       .  A
C836        C837   1.401       .  A
C837        C838   1.402       .  A
C837        H846   1.083       .  S
C838        C841   1.369       .  A
S839        C840   1.723       .  A
C840        C841   1.386       .  A
C841        H847   1.083       .  S
S842        C843   1.723       .  A
C843        C844   1.386       .  A
C844        H848   1.083       .  S
C849        S855   1.705       .  A
C849        C854   1.387       .  A
C849        C850   1.401       .  A
C850        C851   1.401       .  A
C850        H861   1.083       .  S
C851        C860   1.370       .  A
C851        C852   1.387       .  A
C852        S858   1.705       .  A
C852        C853   1.401       .  A
C853        C854   1.401       .  A
C853        H862   1.083       .  S
C854        C857   1.370       .  A
S855        C856   1.723       .  A
C856        C857   1.386       .  A
C857        H863   1.083       .  S
S858        C859   1.723       .  A
C859        C860   1.386       .  A
C860        H864   1.083       .  S
C865        S871   1.707   1_655  A
C865        C870   1.387   1_545  A
C865        C866   1.402   1_655  A
C866        C867   1.402   1_455  A
C866        H877   1.083       .  S
C867        C876   1.371       .  A
C867        C868   1.387   1_545  A
C868        S874   1.706       .  A
C868        C869   1.401       .  A
C869        C870   1.402       .  A
C869        H878   1.083       .  S
C870        C873   1.370       .  A
S871        C872   1.724   1_455  A
C872        C873   1.386   1_545  A
C873        H879   1.083       .  S
S874        C875   1.723       .  A
C875        C876   1.387   1_565  A
C876        H880   1.083   1_655  S
C881        S887   1.706       .  A
C881        C886   1.387   1_565  A
C881        C882   1.402       .  A
C882        C883   1.402       .  A
C882        H893   1.083       .  S
C883        C892   1.371       .  A
C883        C884   1.387   1_565  A
C884        S890   1.704       .  A
C884        C885   1.400       .  A
C885        C886   1.401       .  A
C885        H894   1.083       .  S
C886        C889   1.370       .  A
S887        C888   1.724       .  A
C888        C889   1.385   1_565  A
C889        H895   1.083       .  S
S890        C891   1.723   1_545  A
C891        C892   1.387       .  A
C892        H896   1.083       .  S
C897        S903   1.707       .  A
C897        C902   1.387   1_545  A
C897        C898   1.401       .  A
C898        C899   1.402       .  A
C898        H909   1.083       .  S
C899        C908   1.369       .  A
C899        C900   1.387   1_545  A
C900        S906   1.706       .  A
C900        C901   1.400       .  A
C901        C902   1.401       .  A
C901        H910   1.083       .  S
C902        C905   1.368       .  A
S903        C904   1.723       .  A
C904        C905   1.386   1_545  A
C905        H911   1.083       .  S
S906        C907   1.722       .  A
C907        C908   1.387   1_565  A
C908        H912   1.083       .  S
C913        S919   1.705       .  A
C913        C918   1.387       .  A
C913        C914   1.399       .  A
C914        C915   1.400       .  A
C914        H925   1.083       .  S
C915        C924   1.368       .  A
C915        C916   1.387       .  A
C916        S922   1.707       .  A
C916        C917   1.402       .  A
C917        C918   1.403       .  A
C917        H926   1.083       .  S
C918        C921   1.370       .  A
S919        C920   1.721       .  A
C920        C921   1.387       .  A
C921        H927   1.083       .  S
S922        C923   1.724       .  A
C923        C924   1.385       .  A
C924        H928   1.083       .  S
C929        S935   1.708       .  A
C929        C934   1.387       .  A
C929        C930   1.401       .  A
C930        C931   1.402       .  A
C930        H941   1.083       .  S
C931        C940   1.370       .  A
C931        C932   1.388       .  A
C932        S938   1.706       .  A
C932        C933   1.400       .  A
C933        C934   1.402       .  A
C933        H942   1.083       .  S
C934        C937   1.369       .  A
S935        C936   1.723       .  A
C936        C937   1.386       .  A
C937        H943   1.083       .  S
S938        C939   1.720       .  A
C939        C940   1.384       .  A
C940        H944   1.083       .  S
C945        S951   1.708       .  A
C945        C950   1.387       .  A
C945        C946   1.402       .  A
C946        C947   1.403       .  A
C946        H957   1.083       .  S
C947        C956   1.371       .  A
C947        C948   1.387       .  A
C948        S954   1.708       .  A
C948        C949   1.402       .  A
C949        C950   1.403       .  A
C949        H958   1.083       .  S
C950        C953   1.371       .  A
S951        C952   1.724       .  A
C952        C953   1.387       .  A
C953        H959   1.083       .  S
S954        C955   1.723       .  A
C955        C956   1.388       .  A
C956        H960   1.083       .  S
C961        S967   1.710       .  A
C961        C966   1.386       .  A
C961        C962   1.402       .  A
C962        C963   1.404       .  A
C962        H973   1.083       .  S
C963        C972   1.370       .  A
C963        C964   1.387       .  A
C964        S970   1.710       .  A
C964        C965   1.402       .  A
C965        C966   1.404       .  A
C965        H974   1.083       .  S
C966        C969   1.370       .  A
S967        C968   1.724       .  A
C968        C969   1.388       .  A
C969        H975   1.083       .  S
S970        C971   1.724       .  A
C971        C972   1.388       .  A
C972        H976   1.083       .  S
C977        S983   1.707       .  A
C977        C982   1.387   1_545  A
C977        C978   1.403       .  A
C978        C979   1.403       .  A
C978        H989   1.083       .  S
C979        C988   1.373       .  A
C979        C980   1.387   1_545  A
C980        S986   1.706       .  A
C980        C981   1.402       .  A
C981        C982   1.402       .  A
C981        H990   1.083       .  S
C982        C985   1.372       .  A
S983        C984   1.724       .  A
C984        C985   1.387   1_545  A
C985        H991   1.083       .  S
S986        C987   1.724       .  A
C987        C988   1.388   1_565  A
C988        H992   1.083       .  S
C993        S999   1.709       .  A
C993        C998   1.387   1_565  A
C993        C994   1.403       .  A
C994        C995   1.404       .  A
C994       H1005   1.083       .  S
C995       C1004   1.372       .  A
C995        C996   1.387   1_565  A
C996       S1002   1.706       .  A
C996        C997   1.401       .  A
C997        C998   1.402       .  A
C997       H1006   1.083       .  S
C998       C1001   1.370       .  A
S999       C1000   1.722       .  A
C1000      C1001   1.384   1_565  A
C1001      H1007   1.083       .  S
S1002      C1003   1.722   1_545  A
C1003      C1004   1.387       .  A
C1004      H1008   1.083       .  S
C1009      S1015   1.709       .  A
C1009      C1014   1.387   1_655  A
C1009      C1010   1.402       .  A
C1010      C1011   1.403       .  A
C1010      H1021   1.083       .  S
C1011      C1020   1.371       .  A
C1011      C1012   1.386   1_655  A
C1012      S1018   1.712       .  A
C1012      C1013   1.404       .  A
C1013      C1014   1.406       .  A
C1013      H1022   1.083       .  S
C1014      C1017   1.373       .  A
S1015      C1016   1.724   1_655  A
C1016      C1017   1.389       .  A
C1017      H1023   1.083       .  S
S1018      C1019   1.725       .  A
C1019      C1020   1.388   1_455  A
C1020      H1024   1.083       .  S
C1025      S1031   1.708       .  A
C1025      C1030   1.387   1_655  A
C1025      C1026   1.403       .  A
C1026      C1027   1.404       .  A
C1026      H1037   1.083       .  S
C1027      C1036   1.373       .  A
C1027      C1028   1.387   1_655  A
C1028      S1034   1.707       .  A
C1028      C1029   1.402       .  A
C1029      C1030   1.402       .  A
C1029      H1038   1.083       .  S
C1030      C1033   1.372       .  A
S1031      C1032   1.723   1_655  A
C1032      C1033   1.386       .  A
C1033      H1039   1.083       .  S
S1034      C1035   1.722       .  A
C1035      C1036   1.387   1_455  A
C1036      H1040   1.083       .  S
C1041      S1047   1.706       .  A
C1041      C1046   1.387   1_655  A
C1041      C1042   1.403       .  A
C1042      C1043   1.403       .  A
C1042      H1053   1.083       .  S
C1043      C1052   1.373       .  A
C1043      C1044   1.387   1_655  A
C1044      S1050   1.704       .  A
C1044      C1045   1.401       .  A
C1045      C1046   1.401       .  A
C1045      H1054   1.083       .  S
C1046      C1049   1.371       .  A
S1047      C1048   1.725       .  A
C1048      C1049   1.386   1_655  A
C1049      H1055   1.083       .  S
S1050      C1051   1.723       .  A
C1051      C1052   1.387   1_455  A
C1052      H1056   1.083       .  S
C1057      S1063   1.705       .  A
C1057      C1062   1.387   1_655  A
C1057      C1058   1.401       .  A
C1058      C1059   1.401       .  A
C1058      H1069   1.083       .  S
C1059      C1068   1.370       .  A
C1059      C1060   1.387   1_655  A
C1060      S1066   1.708       .  A
C1060      C1061   1.402       .  A
C1061      C1062   1.403       .  A
C1061      H1070   1.083       .  S
C1062      C1065   1.372       .  A
S1063      C1064   1.723       .  A
C1064      C1065   1.387   1_655  A
C1065      H1071   1.083       .  S
S1066      C1067   1.724       .  A
C1067      C1068   1.386   1_455  A
C1068      H1072   1.083       .  S
C1073      S1079   1.705       .  A
C1073      C1078   1.387   1_655  A
C1073      C1074   1.402       .  A
C1074      C1075   1.402       .  A
C1074      H1085   1.083       .  S
C1075      C1084   1.373       .  A
C1075      C1076   1.387   1_665  A
C1076      S1082   1.705       .  A
C1076      C1077   1.403       .  A
C1077      C1078   1.403   1_545  A
C1077      H1086   1.083       .  S
C1078      C1081   1.373   1_565  A
S1079      C1080   1.724       .  A
C1080      C1081   1.387   1_665  A
C1081      H1087   1.083       .  S
S1082      C1083   1.725   1_445  A
C1083      C1084   1.387       .  A
C1084      H1088   1.083       .  S
C1089      S1095   1.705       .  A
C1089      C1094   1.387   1_445  A
C1089      C1090   1.400       .  A
C1090      C1091   1.401   1_455  A
C1090      H1101   1.083       .  S
C1091      C1100   1.369   1_655  A
C1091      C1092   1.387   1_545  A
C1092      S1098   1.709       .  A
C1092      C1093   1.403       .  A
C1093      C1094   1.404       .  A
C1093      H1102   1.083       .  S
C1094      C1097   1.373       .  A
S1095      C1096   1.722   1_455  A
C1096      C1097   1.386   1_545  A
C1097      H1103   1.083       .  S
S1098      C1099   1.722       .  A
C1099      C1100   1.385   1_665  A
C1100      H1104   1.083       .  S
