geometry optimzed in LAMMPS
_audit_creation_date              2020-11-30 
_audit_creation_method            'lammps2cif' 
_symmetry_space_group_name_H-M    'P1' 
_symmetry_Int_Tables_number       1 
_symmetry_cell_setting            triclinic 
loop_ 
_symmetry_equiv_pos_as_xyz 
  x,y,z 
_cell_length_a                    38.67036055 
_cell_length_b                    38.626440329540735 
_cell_length_c                    66.87151562649794 
_cell_angle_alpha                 89.00888153671414 
_cell_angle_beta                  90.48320734798195 
_cell_angle_gamma                 119.82028840895248 
loop_ 
_atom_site_label 
_atom_site_type_symbol 
_atom_site_fract_x 
_atom_site_fract_y 
_atom_site_fract_z 
_atom_site_charge 
O1          O  0.20937546  0.46477670  0.02289362    -0.72000
O2          O  0.24674442  0.03786203  0.97818520    -0.72200
O3          O  0.20558558  0.45800412  0.98279248    -0.72100
O4          O  0.24891919  0.04467552  0.01806503    -0.72100
O5          O  0.30050662  0.03728333  0.02284682    -0.72000
O6          O  0.26435808  0.46472273  0.97894781    -0.72000
O7          O  0.30519484  0.04409519  0.98300480    -0.72000
O8          O  0.26104715  0.45737577  0.01904856    -0.72200
V9          V  0.22844329  0.50126947  0.00051006     1.35200
V10         V  0.28186581  0.00078228  0.00098029     1.35200
C11         C  0.22892992  0.44766307  0.02804341     0.77300
C12         C  0.28343641  0.05454607  0.97362975     0.77300
C13         C  0.22797091  0.44830891  0.97379492     0.77200
C14         C  0.28124309  0.05489343  0.02713459     0.77200
C15         C  0.09029781  0.29096968  0.81627248     0.80000
N16         N  0.11033970  0.30538571  0.83371361    -0.78300
C17         C  0.09037657  0.29943862  0.85122321     0.82500
N18         N  0.04981997  0.27849152  0.85115872    -0.78200
C19         C  0.02943117  0.26421923  0.83379661     0.82600
N20         N  0.04978116  0.27065109  0.81643462    -0.79900
C21         C  0.42438057  0.21675231  0.81648304     0.80000
N22         N  0.46497269  0.23684350  0.81646161    -0.78300
C23         C  0.48558651  0.24206768  0.83377991     0.82500
N24         N  0.46545506  0.22677399  0.85115806    -0.78200
C25         C  0.42496674  0.20616333  0.85138198     0.82600
N26         N  0.40470920  0.20146416  0.83400876    -0.79900
O27         O  0.46060698  0.20121431  0.31310173    -0.72000
O28         O  0.03386788  0.24014726  0.35704684    -0.72200
O29         O  0.45426889  0.20064364  0.35312947    -0.72100
O30         O  0.04015530  0.23961941  0.31697813    -0.72100
O31         O  0.03445078  0.29198000  0.31099472    -0.72000
O32         O  0.46161546  0.25998194  0.35525080    -0.72000
O33         O  0.04142137  0.29897504  0.35111175    -0.72000
O34         O  0.45472704  0.25411796  0.31516427    -0.72200
V35         V  0.49726192  0.22131717  0.33504485     1.35200
V36         V  0.99807847  0.27542224  0.33316484     1.35200
C37         C  0.44423582  0.22099066  0.30714223     0.77300
C38         C  0.05099748  0.27698446  0.36110244     0.77300
C39         C  0.44436092  0.22378873  0.36111752     0.77200
C40         C  0.05052676  0.27119700  0.30689716     0.77200
C41         C  0.28618700  0.19832461  0.14883107     0.80000
N42         N  0.26408998  0.21687115  0.14922691    -0.78300
C43         C  0.25486254  0.22727178  0.16687760     0.82500
N44         N  0.26814696  0.21934669  0.18421686    -0.78200
C45         C  0.29064768  0.20126858  0.18415197     0.82600
N46         N  0.29949852  0.19079531  0.16638981    -0.79900
C47         C  0.19821530  0.27539728  0.18468930     0.80000
N48         N  0.21723256  0.25367183  0.18444911    -0.78300
C49         C  0.23273305  0.24917662  0.16713178     0.82500
N50         N  0.22949113  0.26681714  0.15008048    -0.78200
C51         C  0.21112941  0.28900066  0.15010423     0.82600
N52         N  0.19550092  0.29306442  0.16744576    -0.79900
O53         O  0.24545782  0.20739849  0.68924572    -0.72000
O54         O  0.20818283  0.24488283  0.64515955    -0.72200
O55         O  0.24751580  0.20433691  0.64907207    -0.72100
O56         O  0.20473035  0.24680466  0.68522288    -0.72100
O57         O  0.26356912  0.29846217  0.68916866    -0.72000
O58         O  0.29901801  0.26332171  0.64455209    -0.72000
O59         O  0.25994448  0.30359165  0.64918050    -0.72000
O60         O  0.30411871  0.25921020  0.68471385    -0.72200
V61         V  0.22733171  0.22667381  0.66718702     1.35200
V62         V  0.28084810  0.28027378  0.66693619     1.35200
C63         C  0.28205812  0.22691399  0.69399592     0.77300
C64         C  0.22771750  0.28154135  0.64017058     0.77300
C65         C  0.27908169  0.22700938  0.63958028     0.77200
C66         C  0.22708895  0.27889894  0.69413627     0.77200
C67         C  0.27648939  0.08545889  0.51663500     0.80000
N68         N  0.29052399  0.10541386  0.49900799    -0.78300
C69         C  0.28516598  0.08549569  0.48171700     0.82500
N70         N  0.26517706  0.04485319  0.48215078    -0.78200
C71         C  0.25110548  0.02438573  0.49969679     0.82600
N72         N  0.25703086  0.04483955  0.51691383    -0.79900
C73         C  0.20495181  0.41955946  0.51822608     0.80000
N74         N  0.19144534  0.39930887  0.50086767    -0.78300
C75         C  0.19695583  0.41901326  0.48311345     0.82500
N76         N  0.21648712  0.45965418  0.48283332    -0.78200
C77         C  0.22988032  0.48034928  0.50008826     0.82600
N78         N  0.22397419  0.46015136  0.51771598    -0.79900
C79         C  0.30868156  0.21084023  0.55065229    -0.18000
C80         C  0.31073905  0.23145179  0.56805159    -0.20200
C81         C  0.30180017  0.21184121  0.58675326     0.20500
C82         C  0.29113271  0.17114010  0.58789938    -0.03100
C83         C  0.28888853  0.15033680  0.57034907    -0.06200
C84         C  0.29753295  0.17024929  0.55163649     0.20700
C85         C  0.27710030  0.10938165  0.57150523     0.18900
C86         C  0.26834899  0.08978515  0.59017747    -0.17700
C87         C  0.27046439  0.11032938  0.60754136    -0.19900
C88         C  0.28140224  0.15080503  0.60651535     0.20400
C89         C  0.28096724  0.17074010  0.62367490    -0.32900
C90         C  0.28990425  0.21067203  0.62256024     0.01100
C91         C  0.30154012  0.23156982  0.60419861    -0.24200
C92         C  0.29417322  0.14903821  0.53422539    -0.28800
C93         C  0.28176346  0.10799053  0.53521315     0.06800
C94         C  0.27359572  0.08852396  0.55396725    -0.27500
H95         H  0.31534582  0.22656014  0.53636737     0.11500
H96         H  0.31877255  0.26255837  0.56684976     0.12600
H97         H  0.25932417  0.05837902  0.59132467     0.11700
H98         H  0.26288030  0.09436443  0.62175854     0.10900
H99         H  0.27171979  0.15458334  0.63783942     0.16300
H100        H  0.30761179  0.26213239  0.60326171     0.12200
H101        H  0.30045347  0.16441763  0.51985409     0.15100
H102        H  0.26423052  0.05700731  0.55494360     0.14900
C103        C  0.17068162  0.29418669  0.55506830    -0.18000
C104        C  0.17319611  0.27447096  0.57231622    -0.20200
C105        C  0.19061690  0.29581077  0.58981503     0.20500
C106        C  0.20491375  0.33734892  0.59000204    -0.03100
C107        C  0.20224257  0.35718852  0.57262877    -0.06200
C108        C  0.18548254  0.33556991  0.55501159     0.20700
C109        C  0.21742875  0.39883909  0.57273813     0.18900
C110        C  0.23440332  0.42014878  0.59027939    -0.17700
C111        C  0.23732452  0.40058338  0.60742729    -0.19900
C112        C  0.22309703  0.35934749  0.60734632     0.20400
C113        C  0.22810971  0.34004792  0.62407447    -0.32900
C114        C  0.21520456  0.29900542  0.62381187     0.01100
C115        C  0.19543666  0.27673890  0.60685675    -0.24200
C116        C  0.18495486  0.35588849  0.53750383    -0.28800
C117        C  0.20132214  0.39766780  0.53728997     0.06800
C118        C  0.21659169  0.41869453  0.55515565    -0.27500
H119        H  0.15769118  0.27711492  0.54164498     0.11500
H120        H  0.16215488  0.24265250  0.57186135     0.12600
H121        H  0.24615753  0.45214137  0.59061983     0.11700
H122        H  0.25131795  0.41782939  0.62066895     0.10900
H123        H  0.24334821  0.35730440  0.63715232     0.16300
H124        H  0.18595191  0.24520880  0.60651628     0.12200
H125        H  0.17287922  0.33920350  0.52388554     0.15100
H126        H  0.22906044  0.45081311  0.55528116     0.14900
C127        C  0.31076892  0.08696870  0.40951930    -0.18000
C128        C  0.33280835  0.10677973  0.39248203    -0.20200
C129        C  0.36017779  0.14782932  0.39286844     0.20500
C130        C  0.36437972  0.16959278  0.41029561    -0.03100
C131        C  0.34223091  0.14949088  0.42756549    -0.06200
C132        C  0.31587552  0.10786632  0.42723261     0.20700
C133        C  0.34761686  0.17069362  0.44534015     0.18900
C134        C  0.37393612  0.21210019  0.44544438    -0.17700
C135        C  0.39589409  0.23208490  0.42829213    -0.19900
C136        C  0.39194553  0.21099354  0.41072417     0.20400
C137        C  0.41635231  0.22996309  0.39393367    -0.32900
C138        C  0.41381326  0.20760129  0.37703532     0.01100
C139        C  0.38476405  0.16697971  0.37642408    -0.24200
C140        C  0.29618360  0.08752189  0.44476802    -0.28800
C141        C  0.30268200  0.10800667  0.46280390     0.06800
C142        C  0.32768630  0.14985841  0.46282680    -0.27500
H143        H  0.29047018  0.05504920  0.40899117     0.11500
H144        H  0.32918209  0.08977322  0.37913053     0.12600
H145        H  0.37825231  0.22892227  0.45895591     0.11700
H146        H  0.41669490  0.26382017  0.42892601     0.10900
H147        H  0.43889305  0.26122535  0.39450790     0.16300
H148        H  0.38251369  0.14972230  0.36334383     0.12200
H149        H  0.27670054  0.05542055  0.44445685     0.15100
H150        H  0.33277593  0.16615380  0.47659406     0.14900
C151        C  0.40224754  0.16858120  0.23901634    -0.18000
C152        C  0.38125543  0.16672383  0.22150054    -0.20200
C153        C  0.35356072  0.18021522  0.22125500     0.20500
C154        C  0.34613785  0.19464416  0.23901844    -0.03100
C155        C  0.36751299  0.19682416  0.25663414    -0.06200
C156        C  0.39607373  0.18416509  0.25659239     0.20700
C157        C  0.36141849  0.21319155  0.27405564     0.18900
C158        C  0.33292419  0.22557883  0.27402840    -0.17700
C159        C  0.31145686  0.22297158  0.25667798    -0.19900
C160        C  0.31838204  0.20826068  0.23903063     0.18600
C161        C  0.29907022  0.20836920  0.22125692    -0.32900
C162        C  0.30756546  0.19585269  0.20321842     0.01100
C163        C  0.33418927  0.18084991  0.20346099    -0.24200
C164        C  0.41917335  0.18906636  0.27382326    -0.28800
C165        C  0.41472362  0.20755449  0.29077284     0.06800
C166        C  0.38513017  0.21855374  0.29092980    -0.27500
H167        H  0.42398739  0.15871572  0.23868483     0.11500
H168        H  0.38725338  0.15539494  0.20801599     0.12600
H169        H  0.32781392  0.23805012  0.28732827     0.11700
H170        H  0.29011501  0.23342629  0.25692732     0.10900
H171        H  0.27840175  0.21967309  0.22140464     0.16300
H172        H  0.34085611  0.17085555  0.18970807     0.12200
H173        H  0.44228078  0.18099124  0.27359214     0.15100
H174        H  0.38159503  0.23273202  0.30401813     0.14900
C175        C  0.11845498  0.32291553  0.22107795    -0.18000
C176        C  0.09862615  0.32357164  0.23840538    -0.20200
C177        C  0.10083578  0.30464478  0.25610280     0.20500
C178        C  0.12433502  0.28595537  0.25642074    -0.03100
C179        C  0.14420901  0.28518132  0.23892984    -0.06200
C180        C  0.14080137  0.30326075  0.22109645     0.20700
C181        C  0.16655241  0.26531247  0.23917492     0.18900
C182        C  0.16986693  0.24749961  0.25699555    -0.17700
C183        C  0.15020949  0.24822927  0.27427663    -0.19900
C184        C  0.12687949  0.26675978  0.27402841     0.20400
C185        C  0.10468536  0.26482279  0.29084341    -0.32900
C186        C  0.07947088  0.28137061  0.29039194     0.01100
C187        C  0.07868108  0.30249653  0.27319340    -0.24200
C188        C  0.15906701  0.30059706  0.20353741    -0.28800
C189        C  0.18055945  0.27985757  0.20351357     0.06800
C190        C  0.18452161  0.26281402  0.22153869    -0.27500
H191        H  0.11570054  0.33719700  0.20752806     0.11500
H192        H  0.08092459  0.33819930  0.23784970     0.12600
H193        H  0.18710979  0.23234433  0.25747789     0.11700
H194        H  0.15255152  0.23350781  0.28774535     0.10900
H195        H  0.10571753  0.24878458  0.30411035     0.16300
H196        H  0.05915417  0.31512227  0.27270455     0.12200
H197        H  0.15587703  0.31411146  0.18980605     0.15100
H198        H  0.20116232  0.24702466  0.22184087     0.14900
C199        C  0.09261047  0.27154545  0.43062317    -0.18000
C200        C  0.11243357  0.29189687  0.44794065    -0.20200
C201        C  0.13835890  0.33336800  0.44735377     0.20500
C202        C  0.14541610  0.35431090  0.42898825    -0.03100
C203        C  0.12541317  0.33380869  0.41152415    -0.06200
C204        C  0.09835287  0.29231048  0.41239518     0.20700
C205        C  0.13123336  0.35519211  0.39338687     0.18900
C206        C  0.15818929  0.39637050  0.39261272    -0.17700
C207        C  0.17812747  0.41659757  0.40986157    -0.19900
C208        C  0.17133035  0.39600199  0.42818658     0.20400
C209        C  0.18898951  0.41664109  0.44579487    -0.32900
C210        C  0.18096536  0.39633584  0.46433532     0.01100
C211        C  0.15631649  0.35445655  0.46487889    -0.24200
C212        C  0.07614411  0.27279837  0.39529110    -0.28800
C213        C  0.08010054  0.29460795  0.37756634     0.06800
C214        C  0.10859187  0.33545940  0.37658159    -0.27500
H215        H  0.07206948  0.23973652  0.43159278     0.11500
H216        H  0.10680104  0.27528062  0.46191439     0.12600
H217        H  0.16312623  0.41314355  0.37874417     0.11700
H218        H  0.19813817  0.44856372  0.40896641     0.10900
H219        H  0.20823639  0.44876222  0.44507932     0.16300
H220        H  0.15004760  0.33830156  0.47902830     0.12200
H221        H  0.05399339  0.24138479  0.39615914     0.15100
H222        H  0.11189088  0.35233682  0.36289054     0.14900
C223        C  0.42112303  0.23557929  0.74327690    -0.18000
C224        C  0.40074982  0.23567437  0.72593097    -0.20200
C225        C  0.35980967  0.22261964  0.72659509     0.20500
C226        C  0.33884263  0.20808411  0.74476335    -0.03100
C227        C  0.35950845  0.20822381  0.76232629    -0.06200
C228        C  0.40093495  0.22253587  0.76159586     0.20700
C229        C  0.33897796  0.19519027  0.78068697     0.18900
C230        C  0.29780302  0.18123327  0.78122019    -0.17700
C231        C  0.27729179  0.18104721  0.76381082    -0.19900
C232        C  0.29760247  0.19489374  0.74553823     0.20400
C233        C  0.27793495  0.19767924  0.72828152    -0.32900
C234        C  0.29937720  0.21451333  0.71050458     0.01100
C235        C  0.33994705  0.22570948  0.70963928    -0.24200
C236        C  0.42167297  0.22445595  0.77923342    -0.28800
C237        C  0.40171155  0.21238821  0.79771896     0.06800
C238        C  0.36014438  0.19720266  0.79822825    -0.27500
H239        H  0.45289786  0.24647604  0.74243644     0.11500
H240        H  0.41721706  0.24678006  0.71205435     0.12600
H241        H  0.28151754  0.17102388  0.79520577     0.11700
H242        H  0.24571577  0.17085865  0.76472259     0.10900
H243        H  0.24678922  0.18945080  0.72906715     0.16300
H244        H  0.35654811  0.23862357  0.69591989     0.12200
H245        H  0.45358051  0.23594839  0.77856085     0.15100
H246        H  0.34428022  0.18773677  0.81235341     0.14900
C247        C  0.23496076  0.32682165  0.76270060    -0.18000
C248        C  0.21530126  0.32722499  0.78009844    -0.20200
C249        C  0.17415579  0.31335934  0.77987698     0.20500
C250        C  0.15279098  0.30003928  0.76180261    -0.03100
C251        C  0.17256236  0.29946314  0.74427222    -0.06200
C252        C  0.21376319  0.31239571  0.74478908     0.20700
C253        C  0.15074335  0.28436224  0.72645401     0.18900
C254        C  0.10988323  0.27176218  0.72603105    -0.17700
C255        C  0.09038943  0.27265754  0.74335053    -0.19900
C256        C  0.11140467  0.28596895  0.76138397     0.20400
C257        C  0.09151204  0.28428973  0.77910277    -0.32900
C258        C  0.11227769  0.29618936  0.79735438     0.01100
C259        C  0.15380940  0.31148109  0.79750519    -0.24200
C260        C  0.23255477  0.30878924  0.72768752    -0.28800
C261        C  0.21027721  0.29131907  0.71036757     0.06800
C262        C  0.16973732  0.28031671  0.70966184    -0.27500
H263        H  0.26653180  0.33687697  0.76337230     0.11500
H264        H  0.23220190  0.33770985  0.79385609     0.12600
H265        H  0.09279992  0.26033475  0.71240554     0.11700
H266        H  0.05862839  0.26200612  0.74275516     0.10900
H267        H  0.05957793  0.27279794  0.77870922     0.16300
H268        H  0.17023766  0.32089517  0.81144803     0.12200
H269        H  0.26369773  0.31694361  0.72829538     0.15100
H270        H  0.15255572  0.26700607  0.69623459     0.14900
C271        C  0.23991491  0.33930122  0.06069771    -0.18000
C272        C  0.23897943  0.31813723  0.07801941    -0.20200
C273        C  0.22429673  0.32410784  0.09596636     0.20500
C274        C  0.21005297  0.35137642  0.09645104    -0.03100
C275        C  0.21087635  0.37267253  0.07894215    -0.06200
C276        C  0.22616552  0.36674094  0.06106282     0.20700
C277        C  0.19734216  0.40056926  0.07944208     0.18900
C278        C  0.18282052  0.40658442  0.09744546    -0.17700
C279        C  0.18193121  0.38537930  0.11480750    -0.19900
C280        C  0.19556646  0.35781763  0.11447833     0.20400
C281        C  0.19537989  0.33692082  0.13188884    -0.32900
C282        C  0.20974487  0.30982445  0.13155177     0.01100
C283        C  0.22401289  0.30355655  0.11346284    -0.24200
C284        C  0.22890667  0.38947254  0.04404501    -0.28800
C285        C  0.21692216  0.41835026  0.04460339     0.06800
C286        C  0.20006105  0.42302461  0.06214596    -0.27500
H287        H  0.25184355  0.33456376  0.04706234     0.11500
H288        H  0.25005911  0.29732090  0.07741969     0.12600
H289        H  0.17254454  0.42799344  0.09814986     0.11700
H290        H  0.17081704  0.39076562  0.12855785     0.10900
H291        H  0.18450791  0.34220485  0.14574885     0.16300
H292        H  0.23520776  0.28281885  0.11296187     0.12200
H293        H  0.24203632  0.38592417  0.03050580     0.15100
H294        H  0.19147572  0.44576453  0.06268877     0.14900
C295        C  0.33872017  0.10519772  0.09369252    -0.18000
C296        C  0.33839039  0.12474731  0.11106931    -0.20200
C297        C  0.31941838  0.14770468  0.11126598     0.20500
C298        C  0.30245383  0.15275063  0.09348239    -0.03100
C299        C  0.30271294  0.13296688  0.07595219    -0.06200
C300        C  0.32001060  0.10819640  0.07620390     0.20700
C301        C  0.28366242  0.13617772  0.05852922     0.18900
C302        C  0.26673018  0.16098828  0.05835179    -0.17700
C303        C  0.26667438  0.18072999  0.07567371    -0.19900
C304        C  0.28343118  0.17588622  0.09346216     0.20400
C305        C  0.27987602  0.19221520  0.11139897    -0.32900
C306        C  0.29460774  0.18536406  0.12949570     0.01100
C307        C  0.31555233  0.16416391  0.12910827    -0.24200
C308        C  0.31608873  0.08500571  0.05942537    -0.28800
C309        C  0.29422067  0.08567068  0.04268895     0.06800
C310        C  0.27971210  0.11266132  0.04202183    -0.27500
H311        H  0.35240707  0.08661142  0.09413941     0.11500
H312        H  0.35193531  0.12087654  0.12456603     0.12600
H313        H  0.25232197  0.16404287  0.04500322     0.11700
H314        H  0.25229300  0.19874356  0.07533420     0.10900
H315        H  0.26417621  0.20897431  0.11135185     0.16300
H316        H  0.32757608  0.15907414  0.14284957     0.12200
H317        H  0.32739102  0.06434005  0.05998516     0.15100
H318        H  0.26335087  0.11376466  0.02899245     0.14900
C319        C  0.11220691  0.33677283  0.94181950    -0.18000
C320        C  0.09257324  0.31637607  0.92452837    -0.20200
C321        C  0.11272539  0.32579011  0.90614756     0.20500
C322        C  0.15341141  0.35530331  0.90529544    -0.03100
C323        C  0.17333105  0.37577011  0.92278760    -0.06200
C324        C  0.15238717  0.36683448  0.94104648     0.20700
C325        C  0.21377791  0.40604006  0.92186988     0.18900
C326        C  0.23401673  0.41511632  0.90351339    -0.17700
C327        C  0.21426254  0.39482502  0.88619043    -0.19900
C328        C  0.17391415  0.36512651  0.88688435     0.20400
C329        C  0.15347342  0.34582942  0.86942348    -0.32900
C330        C  0.11257041  0.31716208  0.87001496     0.01100
C331        C  0.09264084  0.30692719  0.88855007    -0.24200
C332        C  0.17151353  0.38917948  0.95801946    -0.28800
C333        C  0.21140180  0.42013603  0.95709139     0.06800
C334        C  0.23275426  0.42772995  0.93912852    -0.27500
H335        H  0.09575837  0.32949267  0.95575191     0.11500
H336        H  0.06135404  0.29367554  0.92546686     0.12600
H337        H  0.26494638  0.43832309  0.90249460     0.11700
H338        H  0.23046505  0.40278775  0.87214678     0.10900
H339        H  0.16926102  0.35406747  0.85525981     0.16300
H340        H  0.06122012  0.28470993  0.88927291     0.12200
H341        H  0.15492954  0.38346074  0.97185341     0.15100
H342        H  0.26323114  0.45209378  0.93827810     0.14900
C343        C  0.42478543  0.17846474  0.92381243    -0.18000
C344        C  0.40451837  0.15811381  0.94117052    -0.20200
C345        C  0.36297850  0.13324807  0.94093316     0.20500
C346        C  0.34143756  0.12939497  0.92321439    -0.03100
C347        C  0.36193114  0.14979423  0.90567461    -0.06200
C348        C  0.40381967  0.17416476  0.90595208     0.20700
C349        C  0.34060998  0.14500647  0.88776492     0.18900
C350        C  0.29900638  0.12047203  0.88763313    -0.17700
C351        C  0.27865937  0.10020813  0.90502703    -0.19900
C352        C  0.29960293  0.10414688  0.92285028     0.20400
C353        C  0.27975662  0.08192334  0.94004087    -0.32900
C354        C  0.30151150  0.08417360  0.95733309     0.01100
C355        C  0.34283324  0.11080510  0.95786385    -0.24200
C356        C  0.42409179  0.19315428  0.88828753    -0.28800
C357        C  0.40314513  0.18796610  0.87025296     0.06800
C358        C  0.36131359  0.16418466  0.87021528    -0.27500
H359        H  0.45695778  0.19711251  0.92427801     0.11500
H360        H  0.42141080  0.16128522  0.95470661     0.12600
H361        H  0.28219795  0.11651299  0.87396485     0.11700
H362        H  0.24664060  0.08093359  0.90445473     0.10900
H363        H  0.24800668  0.06103629  0.93955089     0.16300
H364        H  0.35967808  0.11264033  0.97126165     0.12200
H365        H  0.45631887  0.21147587  0.88856514     0.15100
H366        H  0.34476272  0.15992672  0.85642682     0.14900
O367        O  0.20937541  0.96477665  0.02289360    -0.72000
O368        O  0.24674442  0.53786204  0.97818519    -0.72200
O369        O  0.20558558  0.95800413  0.98279247    -0.72100
O370        O  0.24891923  0.54467557  0.01806502    -0.72100
O371        O  0.30050661  0.53728331  0.02284684    -0.72000
O372        O  0.26435806  0.96472266  0.97894783    -0.72000
O373        O  0.30519486  0.54409526  0.98300481    -0.72000
O374        O  0.26104715  0.95737579  0.01904859    -0.72200
V375        V  0.22844327  0.00126945  0.00051006     1.35200
V376        V  0.28186582  0.50078230  0.00098029     1.35200
C377        C  0.22892989  0.94766305  0.02804342     0.77300
C378        C  0.28343643  0.55454610  0.97362975     0.77300
C379        C  0.22797091  0.94830888  0.97379493     0.77200
C380        C  0.28124312  0.55489343  0.02713460     0.77200
C381        C  0.09029783  0.79096972  0.81627248     0.80000
N382        N  0.11033973  0.80538576  0.83371360    -0.78300
C383        C  0.09037658  0.79943869  0.85122321     0.82500
N384        N  0.04981999  0.77849161  0.85115871    -0.78200
C385        C  0.02943118  0.76421931  0.83379660     0.82600
N386        N  0.04978118  0.77065114  0.81643462    -0.79900
C387        C  0.42438060  0.71675236  0.81648304     0.80000
N388        N  0.46497272  0.73684353  0.81646161    -0.78300
C389        C  0.48558655  0.74206775  0.83377991     0.82500
N390        N  0.46545509  0.72677406  0.85115806    -0.78200
C391        C  0.42496678  0.70616339  0.85138198     0.82600
N392        N  0.40470923  0.70146421  0.83400876    -0.79900
O393        O  0.46060697  0.70121428  0.31310171    -0.72000
O394        O  0.03386785  0.74014727  0.35704684    -0.72200
O395        O  0.45426885  0.70064362  0.35312945    -0.72100
O396        O  0.04015531  0.73961943  0.31697813    -0.72100
O397        O  0.03445074  0.79197998  0.31099471    -0.72000
O398        O  0.46161539  0.75998192  0.35525078    -0.72000
O399        O  0.04142133  0.79897504  0.35111175    -0.72000
O400        O  0.45472700  0.75411791  0.31516425    -0.72200
V401        V  0.49726189  0.72131716  0.33504485     1.35200
V402        V  0.99807842  0.77542222  0.33316482     1.35200
C403        C  0.44423579  0.72099061  0.30714222     0.77300
C404        C  0.05099744  0.77698447  0.36110244     0.77300
C405        C  0.44436087  0.72378870  0.36111750     0.77200
C406        C  0.05052675  0.77119702  0.30689716     0.77200
C407        C  0.28618701  0.69832464  0.14883107     0.80000
N408        N  0.26408998  0.71687116  0.14922691    -0.78300
C409        C  0.25486254  0.72727179  0.16687760     0.82500
N410        N  0.26814698  0.71934672  0.18421685    -0.78200
C411        C  0.29064770  0.70126860  0.18415196     0.82600
N412        N  0.29949853  0.69079533  0.16638980    -0.79900
C413        C  0.19821526  0.77539724  0.18468929     0.80000
N414        N  0.21723255  0.75367182  0.18444910    -0.78300
C415        C  0.23273303  0.74917660  0.16713178     0.82500
N416        N  0.22949109  0.76681710  0.15008047    -0.78200
C417        C  0.21112935  0.78900061  0.15010423     0.82600
N418        N  0.19550085  0.79306436  0.16744575    -0.79900
O419        O  0.24545782  0.70739850  0.68924572    -0.72000
O420        O  0.20818283  0.74488282  0.64515955    -0.72200
O421        O  0.24751581  0.70433692  0.64907207    -0.72100
O422        O  0.20473034  0.74680468  0.68522288    -0.72100
O423        O  0.26356912  0.79846218  0.68916866    -0.72000
O424        O  0.29901801  0.76332172  0.64455208    -0.72000
O425        O  0.25994447  0.80359164  0.64918049    -0.72000
O426        O  0.30411871  0.75921021  0.68471384    -0.72200
V427        V  0.22733171  0.72667382  0.66718702     1.35200
V428        V  0.28084810  0.78027379  0.66693618     1.35200
C429        C  0.28205812  0.72691401  0.69399592     0.77300
C430        C  0.22771749  0.78154133  0.64017058     0.77300
C431        C  0.27908170  0.72700939  0.63958028     0.77200
C432        C  0.22708895  0.77889896  0.69413627     0.77200
C433        C  0.27648942  0.58545890  0.51663501     0.80000
N434        N  0.29052403  0.60541388  0.49900800    -0.78300
C435        C  0.28516598  0.58549570  0.48171700     0.82500
N436        N  0.26517702  0.54485321  0.48215078    -0.78200
C437        C  0.25110545  0.52438574  0.49969679     0.82600
N438        N  0.25703087  0.54483957  0.51691384    -0.79900
C439        C  0.20495180  0.91955941  0.51822607     0.80000
N440        N  0.19144533  0.89930884  0.50086767    -0.78300
C441        C  0.19695584  0.91901322  0.48311345     0.82500
N442        N  0.21648715  0.95965414  0.48283332    -0.78200
C443        C  0.22988035  0.98034925  0.50008826     0.82600
N444        N  0.22397420  0.96015133  0.51771598    -0.79900
C445        C  0.30868157  0.71084019  0.55065231    -0.18000
C446        C  0.31073910  0.73145190  0.56805158    -0.20200
C447        C  0.30180019  0.71184122  0.58675327     0.20500
C448        C  0.29113275  0.67114012  0.58789938    -0.03100
C449        C  0.28888857  0.65033681  0.57034908    -0.06200
C450        C  0.29753298  0.67024929  0.55163649     0.20700
C451        C  0.27710035  0.60938165  0.57150524     0.18900
C452        C  0.26834907  0.58978526  0.59017748    -0.17700
C453        C  0.27046444  0.61032941  0.60754135    -0.19900
C454        C  0.28140228  0.65080505  0.60651536     0.20400
C455        C  0.28096728  0.67074013  0.62367489    -0.32900
C456        C  0.28990428  0.71067208  0.62256024     0.01100
C457        C  0.30154012  0.73156977  0.60419861    -0.24200
C458        C  0.29417326  0.64903821  0.53422540    -0.28800
C459        C  0.28176351  0.60799054  0.53521315     0.06800
C460        C  0.27359579  0.58852400  0.55396725    -0.27500
H461        H  0.31534586  0.72656024  0.53636731     0.11500
H462        H  0.31877246  0.76255797  0.56684978     0.12600
H463        H  0.25932413  0.55837873  0.59132469     0.11700
H464        H  0.26288031  0.59436443  0.62175861     0.10900
H465        H  0.27171981  0.65458334  0.63783943     0.16300
H466        H  0.30761186  0.76213267  0.60326169     0.12200
H467        H  0.30045350  0.66441764  0.51985408     0.15100
H468        H  0.26423056  0.55700721  0.55494361     0.14900
C469        C  0.17068165  0.79418670  0.55506833    -0.18000
C470        C  0.17319602  0.77447077  0.57231622    -0.20200
C471        C  0.19061686  0.79581073  0.58981504     0.20500
C472        C  0.20491374  0.83734888  0.59000204    -0.03100
C473        C  0.20224254  0.85718846  0.57262877    -0.06200
C474        C  0.18548253  0.83556986  0.55501158     0.20700
C475        C  0.21742871  0.89883905  0.57273813     0.18900
C476        C  0.23440323  0.92014859  0.59027938    -0.17700
C477        C  0.23732455  0.90058339  0.60742729    -0.19900
C478        C  0.22309703  0.85934746  0.60734631     0.20400
C479        C  0.22810972  0.84004789  0.62407446    -0.32900
C480        C  0.21520454  0.79900538  0.62381187     0.01100
C481        C  0.19543659  0.77673884  0.60685675    -0.24200
C482        C  0.18495484  0.85588841  0.53750380    -0.28800
C483        C  0.20132211  0.89766776  0.53728997     0.06800
C484        C  0.21659158  0.91869439  0.55515565    -0.27500
H485        H  0.15769103  0.77711467  0.54164485     0.11500
H486        H  0.16215498  0.74265292  0.57186138     0.12600
H487        H  0.24615767  0.95214184  0.59061983     0.11700
H488        H  0.25131792  0.91782927  0.62066888     0.10900
H489        H  0.24334824  0.85730439  0.63715230     0.16300
H490        H  0.18595182  0.74520876  0.60651630     0.12200
H491        H  0.17287936  0.83920359  0.52388563     0.15100
H492        H  0.22906042  0.95081332  0.55528116     0.14900
C493        C  0.31076900  0.58696880  0.40951932    -0.18000
C494        C  0.33280831  0.60677965  0.39248201    -0.20200
C495        C  0.36017778  0.64782931  0.39286845     0.20500
C496        C  0.36437974  0.66959276  0.41029560    -0.03100
C497        C  0.34223094  0.64949088  0.42756549    -0.06200
C498        C  0.31587553  0.60786630  0.42723261     0.20700
C499        C  0.34761687  0.67069360  0.44534016     0.18900
C500        C  0.37393614  0.71210016  0.44544438    -0.17700
C501        C  0.39589412  0.73208487  0.42829213    -0.19900
C502        C  0.39194556  0.71099354  0.41072417     0.20400
C503        C  0.41635222  0.72996294  0.39393367    -0.32900
C504        C  0.41381324  0.70760130  0.37703531     0.01100
C505        C  0.38476399  0.66697969  0.37642406    -0.24200
C506        C  0.29618357  0.58752181  0.44476803    -0.28800
C507        C  0.30268203  0.60800670  0.46280391     0.06800
C508        C  0.32768631  0.64985841  0.46282681    -0.27500
H509        H  0.29046991  0.55504875  0.40899117     0.11500
H510        H  0.32918211  0.58977336  0.37913061     0.12600
H511        H  0.37825236  0.72892231  0.45895593     0.11700
H512        H  0.41669495  0.76382017  0.42892601     0.10900
H513        H  0.43889340  0.76122579  0.39450790     0.16300
H514        H  0.38251361  0.64972230  0.36334384     0.12200
H515        H  0.27670073  0.55542084  0.44445687     0.15100
H516        H  0.33277594  0.66615380  0.47659407     0.14900
C517        C  0.40224744  0.66858104  0.23901635    -0.18000
C518        C  0.38125533  0.66672371  0.22150054    -0.20200
C519        C  0.35356067  0.68021517  0.22125500     0.20500
C520        C  0.34613784  0.69464413  0.23901843    -0.03100
C521        C  0.36751296  0.69682412  0.25663413    -0.06200
C522        C  0.39607366  0.68416499  0.25659239     0.20700
C523        C  0.36141851  0.71319155  0.27405563     0.18900
C524        C  0.33292426  0.72557891  0.27402839    -0.17700
C525        C  0.31145696  0.72297164  0.25667796    -0.19900
C526        C  0.31838205  0.70826072  0.23903063     0.18600
C527        C  0.29907032  0.70836919  0.22125692    -0.32900
C528        C  0.30756544  0.69585272  0.20321843     0.01100
C529        C  0.33418926  0.68084987  0.20346097    -0.24200
C530        C  0.41917330  0.68906624  0.27382327    -0.28800
C531        C  0.41472358  0.70755442  0.29077283     0.06800
C532        C  0.38513016  0.71855374  0.29092981    -0.27500
H533        H  0.42398719  0.65871554  0.23868484     0.11500
H534        H  0.38725323  0.65539479  0.20801600     0.12600
H535        H  0.32781404  0.73805021  0.28732821     0.11700
H536        H  0.29011503  0.73342646  0.25692730     0.10900
H537        H  0.27840148  0.71967333  0.22140463     0.16300
H538        H  0.34085603  0.67085558  0.18970817     0.12200
H539        H  0.44228063  0.68099111  0.27359215     0.15100
H540        H  0.38159509  0.73273192  0.30401802     0.14900
C541        C  0.11845501  0.82291551  0.22107799    -0.18000
C542        C  0.09862616  0.82357168  0.23840537    -0.20200
C543        C  0.10083581  0.80464480  0.25610280     0.20500
C544        C  0.12433504  0.78595540  0.25642074    -0.03100
C545        C  0.14420901  0.78518133  0.23892985    -0.06200
C546        C  0.14080138  0.80326078  0.22109645     0.20700
C547        C  0.16655240  0.76531247  0.23917492     0.18900
C548        C  0.16986694  0.74749967  0.25699556    -0.17700
C549        C  0.15020956  0.74822934  0.27427665    -0.19900
C550        C  0.12687954  0.76675984  0.27402842     0.20400
C551        C  0.10468540  0.76482288  0.29084340    -0.32900
C552        C  0.07947090  0.78137065  0.29039195     0.01100
C553        C  0.07868107  0.80249658  0.27319340    -0.24200
C554        C  0.15906702  0.80059706  0.20353742    -0.28800
C555        C  0.18055942  0.77985755  0.20351357     0.06800
C556        C  0.18452159  0.76281397  0.22153868    -0.27500
H557        H  0.11570053  0.83719718  0.20752791     0.11500
H558        H  0.08092470  0.83819926  0.23784971     0.12600
H559        H  0.18710993  0.73234428  0.25747791     0.11700
H560        H  0.15255159  0.73350791  0.28774538     0.10900
H561        H  0.10571758  0.74878457  0.30411043     0.16300
H562        H  0.05915429  0.81512222  0.27270455     0.12200
H563        H  0.15587704  0.81411149  0.18980602     0.15100
H564        H  0.20116220  0.74702466  0.22184085     0.14900
C565        C  0.09261049  0.77154541  0.43062315    -0.18000
C566        C  0.11243358  0.79189682  0.44794064    -0.20200
C567        C  0.13835888  0.83336795  0.44735377     0.20500
C568        C  0.14541608  0.85431087  0.42898826    -0.03100
C569        C  0.12541314  0.83380866  0.41152415    -0.06200
C570        C  0.09835286  0.79231045  0.41239517     0.20700
C571        C  0.13123332  0.85519210  0.39338688     0.18900
C572        C  0.15818924  0.89637047  0.39261274    -0.17700
C573        C  0.17812752  0.91659767  0.40986158    -0.19900
C574        C  0.17133031  0.89600193  0.42818659     0.20400
C575        C  0.18898951  0.91664106  0.44579488    -0.32900
C576        C  0.18096535  0.89633578  0.46433533     0.01100
C577        C  0.15631648  0.85445651  0.46487888    -0.24200
C578        C  0.07614409  0.77279837  0.39529109    -0.28800
C579        C  0.08010049  0.79460795  0.37756634     0.06800
C580        C  0.10859180  0.83545941  0.37658160    -0.27500
H581        H  0.07206950  0.73973644  0.43159276     0.11500
H582        H  0.10680107  0.77528056  0.46191437     0.12600
H583        H  0.16312623  0.91314364  0.37874416     0.11700
H584        H  0.19813788  0.94856327  0.40896644     0.10900
H585        H  0.20823634  0.94876210  0.44507932     0.16300
H586        H  0.15004755  0.83830143  0.47902836     0.12200
H587        H  0.05399334  0.74138471  0.39615913     0.15100
H588        H  0.11189081  0.85233685  0.36289055     0.14900
C589        C  0.42112301  0.73557928  0.74327689    -0.18000
C590        C  0.40074984  0.73567436  0.72593095    -0.20200
C591        C  0.35980966  0.72261961  0.72659509     0.20500
C592        C  0.33884264  0.70808411  0.74476334    -0.03100
C593        C  0.35950846  0.70822382  0.76232628    -0.06200
C594        C  0.40093497  0.72253589  0.76159586     0.20700
C595        C  0.33897798  0.69519026  0.78068696     0.18900
C596        C  0.29780302  0.68123320  0.78122018    -0.17700
C597        C  0.27729176  0.68104713  0.76381081    -0.19900
C598        C  0.29760247  0.69489371  0.74553823     0.20400
C599        C  0.27793493  0.69767921  0.72828151    -0.32900
C600        C  0.29937719  0.71451333  0.71050459     0.01100
C601        C  0.33994708  0.72570949  0.70963924    -0.24200
C602        C  0.42167300  0.72445598  0.77923342    -0.28800
C603        C  0.40171158  0.71238823  0.79771895     0.06800
C604        C  0.36014439  0.69720265  0.79822825    -0.27500
H605        H  0.45289800  0.74647609  0.74243643     0.11500
H606        H  0.41721698  0.74677998  0.71205440     0.12600
H607        H  0.28151752  0.67102376  0.79520577     0.11700
H608        H  0.24571584  0.67085856  0.76472257     0.10900
H609        H  0.24678925  0.68945077  0.72906715     0.16300
H610        H  0.35654793  0.73862342  0.69592002     0.12200
H611        H  0.45358052  0.73594845  0.77856085     0.15100
H612        H  0.34428029  0.68773678  0.81235336     0.14900
C613        C  0.23496078  0.82682167  0.76270060    -0.18000
C614        C  0.21530129  0.82722501  0.78009845    -0.20200
C615        C  0.17415580  0.81335932  0.77987699     0.20500
C616        C  0.15279100  0.80003929  0.76180261    -0.03100
C617        C  0.17256239  0.79946317  0.74427222    -0.06200
C618        C  0.21376321  0.81239572  0.74478908     0.20700
C619        C  0.15074338  0.78436229  0.72645400     0.18900
C620        C  0.10988324  0.77176222  0.72603104    -0.17700
C621        C  0.09038946  0.77265757  0.74335054    -0.19900
C622        C  0.11140469  0.78596896  0.76138397     0.20400
C623        C  0.09151205  0.78428973  0.77910277    -0.32900
C624        C  0.11227772  0.79618937  0.79735439     0.01100
C625        C  0.15380941  0.81148106  0.79750520    -0.24200
C626        C  0.23255479  0.80878925  0.72768752    -0.28800
C627        C  0.21027722  0.79131910  0.71036756     0.06800
C628        C  0.16973736  0.78031678  0.70966185    -0.27500
H629        H  0.26653183  0.83687700  0.76337230     0.11500
H630        H  0.23220185  0.83770980  0.79385603     0.12600
H631        H  0.09280002  0.76033487  0.71240559     0.11700
H632        H  0.05862838  0.76200613  0.74275516     0.10900
H633        H  0.05957799  0.77279797  0.77870922     0.16300
H634        H  0.17023768  0.82089515  0.81144805     0.12200
H635        H  0.26369773  0.81694361  0.72829538     0.15100
H636        H  0.15255564  0.76700605  0.69623451     0.14900
C637        C  0.23991489  0.83930124  0.06069774    -0.18000
C638        C  0.23897947  0.81813728  0.07801941    -0.20200
C639        C  0.22429677  0.82410785  0.09596637     0.20500
C640        C  0.21005298  0.85137644  0.09645105    -0.03100
C641        C  0.21087633  0.87267251  0.07894216    -0.06200
C642        C  0.22616549  0.86674092  0.06106281     0.20700
C643        C  0.19734210  0.90056923  0.07944208     0.18900
C644        C  0.18282050  0.90658434  0.09744546    -0.17700
C645        C  0.18193122  0.88537931  0.11480750    -0.19900
C646        C  0.19556647  0.85781765  0.11447834     0.20400
C647        C  0.19537990  0.83692084  0.13188885    -0.32900
C648        C  0.20974488  0.80982443  0.13155176     0.01100
C649        C  0.22401288  0.80355663  0.11346285    -0.24200
C650        C  0.22890662  0.88947251  0.04404501    -0.28800
C651        C  0.21692211  0.91835021  0.04460338     0.06800
C652        C  0.20006096  0.92302457  0.06214595    -0.27500
H653        H  0.25184365  0.83456373  0.04706224     0.11500
H654        H  0.25005919  0.79732094  0.07741970     0.12600
H655        H  0.17254440  0.92799359  0.09814987     0.11700
H656        H  0.17081705  0.89076563  0.12855790     0.10900
H657        H  0.18450795  0.84220484  0.14574880     0.16300
H658        H  0.23520791  0.78281863  0.11296187     0.12200
H659        H  0.24203630  0.88592415  0.03050578     0.15100
H660        H  0.19147567  0.94576442  0.06268876     0.14900
C661        C  0.33872024  0.60519782  0.09369253    -0.18000
C662        C  0.33839049  0.62474742  0.11106929    -0.20200
C663        C  0.31941847  0.64770478  0.11126597     0.20500
C664        C  0.30245388  0.65275070  0.09348238    -0.03100
C665        C  0.30271299  0.63296693  0.07595220    -0.06200
C666        C  0.32001065  0.60819648  0.07620391     0.20700
C667        C  0.28366244  0.63617773  0.05852923     0.18900
C668        C  0.26673012  0.66098827  0.05835177    -0.17700
C669        C  0.26667438  0.68072992  0.07567372    -0.19900
C670        C  0.28343117  0.67588625  0.09346216     0.20400
C671        C  0.27987599  0.69221522  0.11139897    -0.32900
C672        C  0.29460777  0.68536410  0.12949570     0.01100
C673        C  0.31555240  0.66416401  0.12910825    -0.24200
C674        C  0.31608882  0.58500565  0.05942538    -0.28800
C675        C  0.29422067  0.58567072  0.04268895     0.06800
C676        C  0.27971214  0.61266133  0.04202185    -0.27500
H677        H  0.35240717  0.58661147  0.09413941     0.11500
H678        H  0.35193544  0.62087669  0.12456605     0.12600
H679        H  0.25232203  0.66404279  0.04500333     0.11700
H680        H  0.25229277  0.69874368  0.07533420     0.10900
H681        H  0.26417620  0.70897421  0.11135186     0.16300
H682        H  0.32757620  0.65907425  0.14284961     0.12200
H683        H  0.32739086  0.56434045  0.05998517     0.15100
H684        H  0.26335078  0.61376464  0.02899238     0.14900
C685        C  0.11220683  0.83677289  0.94181950    -0.18000
C686        C  0.09257328  0.81637618  0.92452834    -0.20200
C687        C  0.11272540  0.82579019  0.90614756     0.20500
C688        C  0.15341140  0.85530338  0.90529543    -0.03100
C689        C  0.17333104  0.87577019  0.92278760    -0.06200
C690        C  0.15238714  0.86683456  0.94104646     0.20700
C691        C  0.21377789  0.90604009  0.92186988     0.18900
C692        C  0.23401681  0.91511643  0.90351339    -0.17700
C693        C  0.21426253  0.89482508  0.88619043    -0.19900
C694        C  0.17391415  0.86512660  0.88688434     0.20400
C695        C  0.15347343  0.84582951  0.86942346    -0.32900
C696        C  0.11257046  0.81716217  0.87001495     0.01100
C697        C  0.09264072  0.80692714  0.88855007    -0.24200
C698        C  0.17151352  0.88917952  0.95801945    -0.28800
C699        C  0.21140179  0.92013601  0.95709140     0.06800
C700        C  0.23275431  0.92772998  0.93912853    -0.27500
H701        H  0.09575847  0.82949283  0.95575181     0.11500
H702        H  0.06135378  0.79367545  0.92546685     0.12600
H703        H  0.26494608  0.93832290  0.90249462     0.11700
H704        H  0.23046509  0.90278783  0.87214679     0.10900
H705        H  0.16926100  0.85406755  0.85525981     0.16300
H706        H  0.06122065  0.78471033  0.88927289     0.12200
H707        H  0.15492948  0.88346077  0.97185343     0.15100
H708        H  0.26323097  0.95209361  0.93827812     0.14900
C709        C  0.42478546  0.67846473  0.92381242    -0.18000
C710        C  0.40451842  0.65811380  0.94117052    -0.20200
C711        C  0.36297851  0.63324805  0.94093314     0.20500
C712        C  0.34143758  0.62939496  0.92321439    -0.03100
C713        C  0.36193117  0.64979424  0.90567461    -0.06200
C714        C  0.40381969  0.67416476  0.90595208     0.20700
C715        C  0.34061001  0.64500654  0.88776492     0.18900
C716        C  0.29900640  0.62047211  0.88763313    -0.17700
C717        C  0.27865949  0.60020823  0.90502702    -0.19900
C718        C  0.29960293  0.60414688  0.92285027     0.20400
C719        C  0.27975674  0.58192342  0.94004086    -0.32900
C720        C  0.30151150  0.58417361  0.95733308     0.01100
C721        C  0.34283327  0.61080510  0.95786385    -0.24200
C722        C  0.42409195  0.69315439  0.88828753    -0.28800
C723        C  0.40314514  0.68796615  0.87025296     0.06800
C724        C  0.36131363  0.66418477  0.87021529    -0.27500
H725        H  0.45695784  0.69711249  0.92427801     0.11500
H726        H  0.42141074  0.66128515  0.95470656     0.12600
H727        H  0.28219798  0.61651309  0.87396485     0.11700
H728        H  0.24664031  0.58093346  0.90445472     0.10900
H729        H  0.24800633  0.56103606  0.93955088     0.16300
H730        H  0.35967808  0.61264032  0.97126162     0.12200
H731        H  0.45631843  0.71147562  0.88856513     0.15100
H732        H  0.34476275  0.65992685  0.85642681     0.14900
O733        O  0.70937544  0.46477669  0.02289361    -0.72000
O734        O  0.74674441  0.03786204  0.97818520    -0.72200
O735        O  0.70558558  0.45800414  0.98279247    -0.72100
O736        O  0.74891918  0.04467552  0.01806503    -0.72100
O737        O  0.80050661  0.03728334  0.02284682    -0.72000
O738        O  0.76435807  0.46472272  0.97894781    -0.72000
O739        O  0.80519484  0.04409521  0.98300480    -0.72000
O740        O  0.76104714  0.45737578  0.01904856    -0.72200
V741        V  0.72844329  0.50126948  0.00051006     1.35200
V742        V  0.78186582  0.00078229  0.00098029     1.35200
C743        C  0.72892991  0.44766307  0.02804340     0.77300
C744        C  0.78343641  0.05454608  0.97362975     0.77300
C745        C  0.72797091  0.44830891  0.97379491     0.77200
C746        C  0.78124308  0.05489343  0.02713459     0.77200
C747        C  0.59029780  0.29096968  0.81627248     0.80000
N748        N  0.61033970  0.30538571  0.83371361    -0.78300
C749        C  0.59037657  0.29943862  0.85122321     0.82500
N750        N  0.54981997  0.27849153  0.85115872    -0.78200
C751        C  0.52943116  0.26421925  0.83379661     0.82600
N752        N  0.54978115  0.27065110  0.81643462    -0.79900
C753        C  0.92438058  0.21675231  0.81648303     0.80000
N754        N  0.96497270  0.23684347  0.81646161    -0.78300
C755        C  0.98558652  0.24206767  0.83377991     0.82500
N756        N  0.96545506  0.22677400  0.85115806    -0.78200
C757        C  0.92496675  0.20616335  0.85138198     0.82600
N758        N  0.90470920  0.20146418  0.83400876    -0.79900
O759        O  0.96060697  0.20121431  0.31310172    -0.72000
O760        O  0.53386789  0.24014727  0.35704684    -0.72200
O761        O  0.95426887  0.20064364  0.35312946    -0.72100
O762        O  0.54015530  0.23961942  0.31697812    -0.72100
O763        O  0.53445077  0.29198000  0.31099472    -0.72000
O764        O  0.96161544  0.25998195  0.35525080    -0.72000
O765        O  0.54142138  0.29897504  0.35111175    -0.72000
O766        O  0.95472704  0.25411797  0.31516426    -0.72200
V767        V  0.99726190  0.22131716  0.33504485     1.35200
V768        V  0.49807847  0.27542224  0.33316484     1.35200
C769        C  0.94423582  0.22099067  0.30714222     0.77300
C770        C  0.55099749  0.27698447  0.36110244     0.77300
C771        C  0.94436090  0.22378874  0.36111751     0.77200
C772        C  0.55052676  0.27119700  0.30689716     0.77200
C773        C  0.78618700  0.19832462  0.14883107     0.80000
N774        N  0.76408998  0.21687116  0.14922691    -0.78300
C775        C  0.75486254  0.22727179  0.16687760     0.82500
N776        N  0.76814696  0.21934670  0.18421686    -0.78200
C777        C  0.79064767  0.20126858  0.18415197     0.82600
N778        N  0.79949851  0.19079531  0.16638981    -0.79900
C779        C  0.69821530  0.27539729  0.18468930     0.80000
N780        N  0.71723256  0.25367183  0.18444911    -0.78300
C781        C  0.73273306  0.24917663  0.16713179     0.82500
N782        N  0.72949116  0.26681716  0.15008048    -0.78200
C783        C  0.71112943  0.28900067  0.15010423     0.82600
N784        N  0.69550093  0.29306443  0.16744576    -0.79900
O785        O  0.74545782  0.20739849  0.68924572    -0.72000
O786        O  0.70818283  0.24488283  0.64515954    -0.72200
O787        O  0.74751580  0.20433691  0.64907207    -0.72100
O788        O  0.70473035  0.24680467  0.68522288    -0.72100
O789        O  0.76356913  0.29846216  0.68916867    -0.72000
O790        O  0.79901800  0.26332171  0.64455208    -0.72000
O791        O  0.75994447  0.30359165  0.64918050    -0.72000
O792        O  0.80411871  0.25921018  0.68471384    -0.72200
V793        V  0.72733171  0.22667381  0.66718702     1.35200
V794        V  0.78084810  0.28027378  0.66693618     1.35200
C795        C  0.78205813  0.22691399  0.69399591     0.77300
C796        C  0.72771750  0.28154135  0.64017058     0.77300
C797        C  0.77908168  0.22700938  0.63958028     0.77200
C798        C  0.72708896  0.27889894  0.69413628     0.77200
C799        C  0.77648939  0.08545889  0.51663500     0.80000
N800        N  0.79052399  0.10541386  0.49900799    -0.78300
C801        C  0.78516598  0.08549569  0.48171700     0.82500
N802        N  0.76517709  0.04485319  0.48215078    -0.78200
C803        C  0.75110552  0.02438573  0.49969679     0.82600
N804        N  0.75703089  0.04483955  0.51691383    -0.79900
C805        C  0.70495185  0.41955947  0.51822607     0.80000
N806        N  0.69144535  0.39930888  0.50086767    -0.78300
C807        C  0.69695584  0.41901327  0.48311345     0.82500
N808        N  0.71648713  0.45965419  0.48283332    -0.78200
C809        C  0.72988036  0.48034929  0.50008825     0.82600
N810        N  0.72397425  0.46015137  0.51771597    -0.79900
C811        C  0.80868156  0.21084023  0.55065229    -0.18000
C812        C  0.81073904  0.23145179  0.56805159    -0.20200
C813        C  0.80180016  0.21184121  0.58675326     0.20500
C814        C  0.79113271  0.17114010  0.58789938    -0.03100
C815        C  0.78888853  0.15033680  0.57034907    -0.06200
C816        C  0.79753295  0.17024928  0.55163649     0.20700
C817        C  0.77710029  0.10938165  0.57150523     0.18900
C818        C  0.76834898  0.08978515  0.59017746    -0.17700
C819        C  0.77046438  0.11032938  0.60754136    -0.19900
C820        C  0.78140223  0.15080503  0.60651535     0.20400
C821        C  0.78096723  0.17074010  0.62367490    -0.32900
C822        C  0.78990424  0.21067203  0.62256024     0.01100
C823        C  0.80154011  0.23156981  0.60419861    -0.24200
C824        C  0.79417323  0.14903821  0.53422539    -0.28800
C825        C  0.78176346  0.10799052  0.53521315     0.06800
C826        C  0.77359571  0.08852395  0.55396724    -0.27500
H827        H  0.81534582  0.22656014  0.53636737     0.11500
H828        H  0.81877254  0.26255837  0.56684976     0.12600
H829        H  0.75932415  0.05837901  0.59132467     0.11700
H830        H  0.76288029  0.09436443  0.62175854     0.10900
H831        H  0.77171978  0.15458334  0.63783941     0.16300
H832        H  0.80761178  0.26213239  0.60326171     0.12200
H833        H  0.80045349  0.16441762  0.51985410     0.15100
H834        H  0.76423050  0.05700730  0.55494360     0.14900
C835        C  0.67068161  0.29418669  0.55506831    -0.18000
C836        C  0.67319610  0.27447096  0.57231623    -0.20200
C837        C  0.69061689  0.29581077  0.58981503     0.20500
C838        C  0.70491374  0.33734892  0.59000204    -0.03100
C839        C  0.70224256  0.35718852  0.57262877    -0.06200
C840        C  0.68548254  0.33556991  0.55501159     0.20700
C841        C  0.71742874  0.39883909  0.57273813     0.18900
C842        C  0.73440331  0.42014878  0.59027940    -0.17700
C843        C  0.73732451  0.40058338  0.60742729    -0.19900
C844        C  0.72309702  0.35934749  0.60734632     0.20400
C845        C  0.72810971  0.34004792  0.62407447    -0.32900
C846        C  0.71520456  0.29900543  0.62381188     0.01100
C847        C  0.69543665  0.27673890  0.60685675    -0.24200
C848        C  0.68495488  0.35588850  0.53750383    -0.28800
C849        C  0.70132216  0.39766781  0.53728997     0.06800
C850        C  0.71659170  0.41869453  0.55515564    -0.27500
H851        H  0.65769117  0.27711492  0.54164498     0.11500
H852        H  0.66215487  0.24265250  0.57186135     0.12600
H853        H  0.74615752  0.45214137  0.59061983     0.11700
H854        H  0.75131795  0.41782939  0.62066895     0.10900
H855        H  0.74334821  0.35730441  0.63715232     0.16300
H856        H  0.68595190  0.24520880  0.60651628     0.12200
H857        H  0.67287924  0.33920350  0.52388554     0.15100
H858        H  0.72906045  0.45081312  0.55528116     0.14900
C859        C  0.81076891  0.08696871  0.40951930    -0.18000
C860        C  0.83280832  0.10677974  0.39248202    -0.20200
C861        C  0.86017776  0.14782933  0.39286843     0.20500
C862        C  0.86437971  0.16959278  0.41029560    -0.03100
C863        C  0.84223090  0.14949088  0.42756549    -0.06200
C864        C  0.81587551  0.10786633  0.42723261     0.20700
C865        C  0.84761685  0.17069362  0.44534015     0.18900
C866        C  0.87393612  0.21210019  0.44544438    -0.17700
C867        C  0.89589409  0.23208490  0.42829213    -0.19900
C868        C  0.89194552  0.21099354  0.41072417     0.20400
C869        C  0.91635230  0.22996309  0.39393367    -0.32900
C870        C  0.91381323  0.20760130  0.37703531     0.01100
C871        C  0.88476400  0.16697974  0.37642407    -0.24200
C872        C  0.79618360  0.08752189  0.44476802    -0.28800
C873        C  0.80268200  0.10800667  0.46280390     0.06800
C874        C  0.82768629  0.14985841  0.46282680    -0.27500
H875        H  0.79047017  0.05504920  0.40899117     0.11500
H876        H  0.82918204  0.08977321  0.37913051     0.12600
H877        H  0.87825231  0.22892228  0.45895591     0.11700
H878        H  0.91669491  0.26382017  0.42892602     0.10900
H879        H  0.93889306  0.26122535  0.39450790     0.16300
H880        H  0.88251361  0.14972225  0.36334376     0.12200
H881        H  0.77670054  0.05542055  0.44445685     0.15100
H882        H  0.83277593  0.16615380  0.47659406     0.14900
C883        C  0.90224753  0.16858119  0.23901634    -0.18000
C884        C  0.88125542  0.16672383  0.22150054    -0.20200
C885        C  0.85356071  0.18021521  0.22125500     0.20500
C886        C  0.84613784  0.19464415  0.23901844    -0.03100
C887        C  0.86751298  0.19682415  0.25663413    -0.06200
C888        C  0.89607372  0.18416509  0.25659239     0.20700
C889        C  0.86141849  0.21319155  0.27405564     0.18900
C890        C  0.83292419  0.22557883  0.27402840    -0.17700
C891        C  0.81145685  0.22297157  0.25667798    -0.19900
C892        C  0.81838204  0.20826067  0.23903063     0.18600
C893        C  0.79907022  0.20836919  0.22125692    -0.32900
C894        C  0.80756545  0.19585268  0.20321842     0.01100
C895        C  0.83418926  0.18084990  0.20346099    -0.24200
C896        C  0.91917335  0.18906636  0.27382326    -0.28800
C897        C  0.91472362  0.20755450  0.29077283     0.06800
C898        C  0.88513017  0.21855374  0.29092979    -0.27500
H899        H  0.92398738  0.15871572  0.23868482     0.11500
H900        H  0.88725337  0.15539493  0.20801599     0.12600
H901        H  0.82781392  0.23805012  0.28732827     0.11700
H902        H  0.79011501  0.23342629  0.25692732     0.10900
H903        H  0.77840174  0.21967309  0.22140464     0.16300
H904        H  0.84085610  0.17085555  0.18970807     0.12200
H905        H  0.94228078  0.18099124  0.27359214     0.15100
H906        H  0.88159504  0.23273203  0.30401813     0.14900
C907        C  0.61845497  0.32291553  0.22107794    -0.18000
C908        C  0.59862615  0.32357164  0.23840538    -0.20200
C909        C  0.60083578  0.30464478  0.25610280     0.20500
C910        C  0.62433502  0.28595537  0.25642074    -0.03100
C911        C  0.64420900  0.28518132  0.23892984    -0.06200
C912        C  0.64080136  0.30326075  0.22109645     0.20700
C913        C  0.66655240  0.26531247  0.23917492     0.18900
C914        C  0.66986693  0.24749961  0.25699555    -0.17700
C915        C  0.65020948  0.24822927  0.27427663    -0.19900
C916        C  0.62687949  0.26675978  0.27402841     0.20400
C917        C  0.60468535  0.26482279  0.29084341    -0.32900
C918        C  0.57947087  0.28137062  0.29039194     0.01100
C919        C  0.57868107  0.30249653  0.27319340    -0.24200
C920        C  0.65906700  0.30059705  0.20353741    -0.28800
C921        C  0.68055944  0.27985757  0.20351357     0.06800
C922        C  0.68452160  0.26281402  0.22153868    -0.27500
H923        H  0.61570054  0.33719699  0.20752806     0.11500
H924        H  0.58092459  0.33819930  0.23784970     0.12600
H925        H  0.68710978  0.23234433  0.25747789     0.11700
H926        H  0.65255151  0.23350781  0.28774535     0.10900
H927        H  0.60571753  0.24878459  0.30411034     0.16300
H928        H  0.55915416  0.31512227  0.27270455     0.12200
H929        H  0.65587702  0.31411145  0.18980605     0.15100
H930        H  0.70116231  0.24702465  0.22184087     0.14900
C931        C  0.59261047  0.27154545  0.43062317    -0.18000
C932        C  0.61243358  0.29189687  0.44794065    -0.20200
C933        C  0.63835891  0.33336800  0.44735377     0.20500
C934        C  0.64541613  0.35431090  0.42898825    -0.03100
C935        C  0.62541319  0.33380869  0.41152415    -0.06200
C936        C  0.59835288  0.29231048  0.41239518     0.20700
C937        C  0.63123338  0.35519211  0.39338687     0.18900
C938        C  0.65818929  0.39637051  0.39261272    -0.17700
C939        C  0.67812749  0.41659758  0.40986157    -0.19900
C940        C  0.67133037  0.39600199  0.42818658     0.20400
C941        C  0.68898952  0.41664109  0.44579487    -0.32900
C942        C  0.68096536  0.39633584  0.46433532     0.01100
C943        C  0.65631649  0.35445655  0.46487889    -0.24200
C944        C  0.57614411  0.27279838  0.39529110    -0.28800
C945        C  0.58010055  0.29460795  0.37756634     0.06800
C946        C  0.60859187  0.33545940  0.37658159    -0.27500
H947        H  0.57206948  0.23973653  0.43159278     0.11500
H948        H  0.60680104  0.27528062  0.46191439     0.12600
H949        H  0.66312622  0.41314356  0.37874417     0.11700
H950        H  0.69813816  0.44856372  0.40896641     0.10900
H951        H  0.70823639  0.44876222  0.44507932     0.16300
H952        H  0.65004760  0.33830157  0.47902830     0.12200
H953        H  0.55399339  0.24138480  0.39615914     0.15100
H954        H  0.61189088  0.35233683  0.36289054     0.14900
C955        C  0.92112303  0.23557929  0.74327690    -0.18000
C956        C  0.90074983  0.23567437  0.72593095    -0.20200
C957        C  0.85980966  0.22261962  0.72659510     0.20500
C958        C  0.83884263  0.20808411  0.74476334    -0.03100
C959        C  0.85950845  0.20822382  0.76232629    -0.06200
C960        C  0.90093495  0.22253588  0.76159586     0.20700
C961        C  0.83897797  0.19519028  0.78068697     0.18900
C962        C  0.79780302  0.18123328  0.78122019    -0.17700
C963        C  0.77729179  0.18104722  0.76381081    -0.19900
C964        C  0.79760247  0.19489374  0.74553823     0.20400
C965        C  0.77793495  0.19767923  0.72828151    -0.32900
C966        C  0.79937718  0.21451331  0.71050458     0.01100
C967        C  0.83994710  0.22570950  0.70963923    -0.24200
C968        C  0.92167297  0.22445595  0.77923341    -0.28800
C969        C  0.90171156  0.21238820  0.79771895     0.06800
C970        C  0.86014438  0.19720266  0.79822824    -0.27500
H971        H  0.95289788  0.24647605  0.74243644     0.11500
H972        H  0.91721701  0.24678001  0.71205439     0.12600
H973        H  0.78151755  0.17102389  0.79520577     0.11700
H974        H  0.74571578  0.17085866  0.76472259     0.10900
H975        H  0.74678921  0.18945081  0.72906714     0.16300
H976        H  0.85654788  0.23862336  0.69592007     0.12200
H977        H  0.95358054  0.23594840  0.77856085     0.15100
H978        H  0.84428024  0.18773678  0.81235340     0.14900
C979        C  0.73496076  0.32682165  0.76270061    -0.18000
C980        C  0.71530125  0.32722499  0.78009844    -0.20200
C981        C  0.67415578  0.31335934  0.77987698     0.20500
C982        C  0.65279098  0.30003928  0.76180260    -0.03100
C983        C  0.67256237  0.29946315  0.74427222    -0.06200
C984        C  0.71376319  0.31239571  0.74478908     0.20700
C985        C  0.65074336  0.28436224  0.72645401     0.18900
C986        C  0.60988324  0.27176218  0.72603105    -0.17700
C987        C  0.59038941  0.27265754  0.74335053    -0.19900
C988        C  0.61140469  0.28596895  0.76138396     0.20400
C989        C  0.59151194  0.28428969  0.77910277    -0.32900
C990        C  0.61227770  0.29618937  0.79735438     0.01100
C991        C  0.65380938  0.31148108  0.79750519    -0.24200
C992        C  0.73255477  0.30878925  0.72768753    -0.28800
C993        C  0.71027722  0.29131908  0.71036757     0.06800
C994        C  0.66973733  0.28031671  0.70966184    -0.27500
H995        H  0.76653180  0.33687698  0.76337231     0.11500
H996        H  0.73220189  0.33770985  0.79385610     0.12600
H997        H  0.59279994  0.26033476  0.71240553     0.11700
H998        H  0.55862846  0.26200614  0.74275516     0.10900
H999        H  0.55957828  0.27279806  0.77870922     0.16300
H1000       H  0.67023765  0.32089517  0.81144804     0.12200
H1001       H  0.76369775  0.31694362  0.72829538     0.15100
H1002       H  0.65255574  0.26700608  0.69623459     0.14900
C1003       C  0.73991491  0.33930122  0.06069771    -0.18000
C1004       C  0.73897942  0.31813723  0.07801941    -0.20200
C1005       C  0.72429673  0.32410784  0.09596636     0.20500
C1006       C  0.71005296  0.35137643  0.09645104    -0.03100
C1007       C  0.71087635  0.37267253  0.07894215    -0.06200
C1008       C  0.72616551  0.36674094  0.06106281     0.20700
C1009       C  0.69734216  0.40056928  0.07944208     0.18900
C1010       C  0.68282055  0.40658439  0.09744546    -0.17700
C1011       C  0.68193122  0.38537932  0.11480750    -0.19900
C1012       C  0.69556646  0.35781764  0.11447833     0.20400
C1013       C  0.69537990  0.33692084  0.13188884    -0.32900
C1014       C  0.70974489  0.30982446  0.13155177     0.01100
C1015       C  0.72401289  0.30355656  0.11346284    -0.24200
C1016       C  0.72890666  0.38947254  0.04404500    -0.28800
C1017       C  0.71692215  0.41835025  0.04460338     0.06800
C1018       C  0.70006105  0.42302460  0.06214595    -0.27500
H1019       H  0.75184355  0.33456375  0.04706234     0.11500
H1020       H  0.75005911  0.29732089  0.07741968     0.12600
H1021       H  0.67254450  0.42799362  0.09814987     0.11700
H1022       H  0.67081706  0.39076564  0.12855787     0.10900
H1023       H  0.68450793  0.34220486  0.14574885     0.16300
H1024       H  0.73520778  0.28281884  0.11296187     0.12200
H1025       H  0.74203630  0.38592417  0.03050579     0.15100
H1026       H  0.69147571  0.44576457  0.06268877     0.14900
C1027       C  0.83872021  0.10519776  0.09369252    -0.18000
C1028       C  0.83839043  0.12474737  0.11106929    -0.20200
C1029       C  0.81941841  0.14770472  0.11126598     0.20500
C1030       C  0.80245383  0.15275065  0.09348239    -0.03100
C1031       C  0.80271294  0.13296689  0.07595219    -0.06200
C1032       C  0.82001060  0.10819643  0.07620390     0.20700
C1033       C  0.78366240  0.13617772  0.05852922     0.18900
C1034       C  0.76673016  0.16098828  0.05835179    -0.17700
C1035       C  0.76667437  0.18072999  0.07567371    -0.19900
C1036       C  0.78343117  0.17588623  0.09346216     0.20400
C1037       C  0.77987601  0.19221520  0.11139897    -0.32900
C1038       C  0.79460774  0.18536407  0.12949570     0.01100
C1039       C  0.81555235  0.16416395  0.12910826    -0.24200
C1040       C  0.81608873  0.08500571  0.05942538    -0.28800
C1041       C  0.79422066  0.08567068  0.04268895     0.06800
C1042       C  0.77971209  0.11266132  0.04202183    -0.27500
H1043       H  0.85240709  0.08661151  0.09413940     0.11500
H1044       H  0.85193541  0.12087662  0.12456604     0.12600
H1045       H  0.75232196  0.16404287  0.04500322     0.11700
H1046       H  0.75229298  0.19874355  0.07533421     0.10900
H1047       H  0.76417618  0.20897429  0.11135185     0.16300
H1048       H  0.82757613  0.15907419  0.14284957     0.12200
H1049       H  0.82739101  0.06434006  0.05998516     0.15100
H1050       H  0.76335086  0.11376465  0.02899246     0.14900
C1051       C  0.61220692  0.33677283  0.94181950    -0.18000
C1052       C  0.59257324  0.31637607  0.92452837    -0.20200
C1053       C  0.61272539  0.32579012  0.90614756     0.20500
C1054       C  0.65341141  0.35530332  0.90529543    -0.03100
C1055       C  0.67333105  0.37577012  0.92278760    -0.06200
C1056       C  0.65238716  0.36683448  0.94104647     0.20700
C1057       C  0.71377789  0.40604008  0.92186988     0.18900
C1058       C  0.73401681  0.41511644  0.90351338    -0.17700
C1059       C  0.71426251  0.39482504  0.88619043    -0.19900
C1060       C  0.67391415  0.36512653  0.88688434     0.20400
C1061       C  0.65347342  0.34582943  0.86942347    -0.32900
C1062       C  0.61257042  0.31716208  0.87001496     0.01100
C1063       C  0.59264085  0.30692719  0.88855007    -0.24200
C1064       C  0.67151354  0.38917948  0.95801946    -0.28800
C1065       C  0.71140180  0.42013604  0.95709139     0.06800
C1066       C  0.73275428  0.42772999  0.93912851    -0.27500
H1067       H  0.59575838  0.32949267  0.95575190     0.11500
H1068       H  0.56135405  0.29367554  0.92546686     0.12600
H1069       H  0.76494602  0.43832289  0.90249460     0.11700
H1070       H  0.73046509  0.40278783  0.87214675     0.10900
H1071       H  0.66926102  0.35406749  0.85525981     0.16300
H1072       H  0.56122012  0.28470994  0.88927291     0.12200
H1073       H  0.65492954  0.38346072  0.97185341     0.15100
H1074       H  0.76323104  0.45209374  0.93827809     0.14900
C1075       C  0.92478545  0.17846478  0.92381243    -0.18000
C1076       C  0.90451837  0.15811382  0.94117051    -0.20200
C1077       C  0.86297850  0.13324808  0.94093315     0.20500
C1078       C  0.84143756  0.12939497  0.92321439    -0.03100
C1079       C  0.86193115  0.14979425  0.90567461    -0.06200
C1080       C  0.90381966  0.17416479  0.90595209     0.20700
C1081       C  0.84060998  0.14500649  0.88776492     0.18900
C1082       C  0.79900639  0.12047204  0.88763312    -0.17700
C1083       C  0.77865938  0.10020813  0.90502702    -0.19900
C1084       C  0.79960293  0.10414688  0.92285028     0.20400
C1085       C  0.77975662  0.08192335  0.94004086    -0.32900
C1086       C  0.80151150  0.08417361  0.95733309     0.01100
C1087       C  0.84283324  0.11080511  0.95786385    -0.24200
C1088       C  0.92409186  0.19315439  0.88828754    -0.28800
C1089       C  0.90314512  0.18796613  0.87025296     0.06800
C1090       C  0.86131360  0.16418468  0.87021528    -0.27500
H1091       H  0.95695771  0.19711251  0.92427802     0.11500
H1092       H  0.92141079  0.16128522  0.95470662     0.12600
H1093       H  0.78219796  0.11651298  0.87396484     0.11700
H1094       H  0.74664061  0.08093359  0.90445472     0.10900
H1095       H  0.74800669  0.06103629  0.93955089     0.16300
H1096       H  0.85967809  0.11264034  0.97126166     0.12200
H1097       H  0.95631858  0.21147580  0.88856515     0.15100
H1098       H  0.84476273  0.15992672  0.85642681     0.14900
O1099       O  0.70937542  0.96477665  0.02289361    -0.72000
O1100       O  0.74674442  0.53786205  0.97818519    -0.72200
O1101       O  0.70558558  0.95800413  0.98279247    -0.72100
O1102       O  0.74891922  0.54467555  0.01806502    -0.72100
O1103       O  0.80050660  0.53728331  0.02284684    -0.72000
O1104       O  0.76435807  0.96472266  0.97894783    -0.72000
O1105       O  0.80519486  0.54409525  0.98300481    -0.72000
O1106       O  0.76104716  0.95737579  0.01904858    -0.72200
V1107       V  0.72844327  0.00126945  0.00051006     1.35200
V1108       V  0.78186582  0.50078230  0.00098029     1.35200
C1109       C  0.72892990  0.94766305  0.02804341     0.77300
C1110       C  0.78343643  0.55454610  0.97362975     0.77300
C1111       C  0.72797091  0.94830889  0.97379492     0.77200
C1112       C  0.78124310  0.55489343  0.02713460     0.77200
C1113       C  0.59029783  0.79096973  0.81627248     0.80000
N1114       N  0.61033973  0.80538577  0.83371360    -0.78300
C1115       C  0.59037660  0.79943870  0.85122320     0.82500
N1116       N  0.54982000  0.77849161  0.85115871    -0.78200
C1117       C  0.52943119  0.76421932  0.83379660     0.82600
N1118       N  0.54978118  0.77065115  0.81643462    -0.79900
C1119       C  0.92438060  0.71675235  0.81648304     0.80000
N1120       N  0.96497272  0.73684353  0.81646161    -0.78300
C1121       C  0.98558655  0.74206774  0.83377991     0.82500
N1122       N  0.96545509  0.72677406  0.85115806    -0.78200
C1123       C  0.92496677  0.70616339  0.85138198     0.82600
N1124       N  0.90470923  0.70146421  0.83400876    -0.79900
O1125       O  0.96060698  0.70121428  0.31310171    -0.72000
O1126       O  0.53386785  0.74014727  0.35704684    -0.72200
O1127       O  0.95426884  0.70064362  0.35312945    -0.72100
O1128       O  0.54015531  0.73961943  0.31697813    -0.72100
O1129       O  0.53445074  0.79197998  0.31099471    -0.72000
O1130       O  0.96161539  0.75998191  0.35525078    -0.72000
O1131       O  0.54142132  0.79897504  0.35111175    -0.72000
O1132       O  0.95472700  0.75411791  0.31516425    -0.72200
V1133       V  0.99726189  0.72131716  0.33504484     1.35200
V1134       V  0.49807842  0.77542222  0.33316482     1.35200
C1135       C  0.94423579  0.72099061  0.30714222     0.77300
C1136       C  0.55099743  0.77698447  0.36110244     0.77300
C1137       C  0.94436086  0.72378869  0.36111749     0.77200
C1138       C  0.55052675  0.77119702  0.30689716     0.77200
C1139       C  0.78618701  0.69832463  0.14883107     0.80000
N1140       N  0.76408998  0.71687116  0.14922691    -0.78300
C1141       C  0.75486255  0.72727179  0.16687760     0.82500
N1142       N  0.76814698  0.71934672  0.18421685    -0.78200
C1143       C  0.79064770  0.70126860  0.18415196     0.82600
N1144       N  0.79949853  0.69079532  0.16638980    -0.79900
C1145       C  0.69821528  0.77539725  0.18468930     0.80000
N1146       N  0.71723257  0.75367182  0.18444911    -0.78300
C1147       C  0.73273304  0.74917661  0.16713178     0.82500
N1148       N  0.72949110  0.76681710  0.15008047    -0.78200
C1149       C  0.71112936  0.78900061  0.15010423     0.82600
N1150       N  0.69550087  0.79306437  0.16744576    -0.79900
O1151       O  0.74545782  0.70739850  0.68924572    -0.72000
O1152       O  0.70818283  0.74488283  0.64515954    -0.72200
O1153       O  0.74751581  0.70433692  0.64907207    -0.72100
O1154       O  0.70473034  0.74680469  0.68522288    -0.72100
O1155       O  0.76356912  0.79846218  0.68916866    -0.72000
O1156       O  0.79901801  0.76332172  0.64455209    -0.72000
O1157       O  0.75994447  0.80359165  0.64918049    -0.72000
O1158       O  0.80411870  0.75921020  0.68471384    -0.72200
V1159       V  0.72733171  0.72667382  0.66718702     1.35200
V1160       V  0.78084810  0.78027379  0.66693618     1.35200
C1161       C  0.78205812  0.72691401  0.69399592     0.77300
C1162       C  0.72771750  0.78154133  0.64017058     0.77300
C1163       C  0.77908169  0.72700939  0.63958028     0.77200
C1164       C  0.72708895  0.77889896  0.69413627     0.77200
C1165       C  0.77648943  0.58545891  0.51663501     0.80000
N1166       N  0.79052402  0.60541389  0.49900800    -0.78300
C1167       C  0.78516598  0.58549572  0.48171700     0.82500
N1168       N  0.76517705  0.54485323  0.48215078    -0.78200
C1169       C  0.75110549  0.52438576  0.49969679     0.82600
N1170       N  0.75703090  0.54483959  0.51691384    -0.79900
C1171       C  0.70495180  0.91955941  0.51822608     0.80000
N1172       N  0.69144531  0.89930883  0.50086767    -0.78300
C1173       C  0.69695584  0.91901322  0.48311345     0.82500
N1174       N  0.71648717  0.95965415  0.48283332    -0.78200
C1175       C  0.72988038  0.98034925  0.50008826     0.82600
N1176       N  0.72397422  0.96015132  0.51771598    -0.79900
C1177       C  0.80868156  0.71084018  0.55065232    -0.18000
C1178       C  0.81073909  0.73145191  0.56805158    -0.20200
C1179       C  0.80180018  0.71184122  0.58675328     0.20500
C1180       C  0.79113274  0.67114012  0.58789938    -0.03100
C1181       C  0.78888856  0.65033681  0.57034908    -0.06200
C1182       C  0.79753298  0.67024930  0.55163648     0.20700
C1183       C  0.77710034  0.60938166  0.57150524     0.18900
C1184       C  0.76834906  0.58978526  0.59017748    -0.17700
C1185       C  0.77046443  0.61032941  0.60754135    -0.19900
C1186       C  0.78140227  0.65080505  0.60651536     0.20400
C1187       C  0.78096727  0.67074013  0.62367489    -0.32900
C1188       C  0.78990427  0.71067208  0.62256024     0.01100
C1189       C  0.80154012  0.73156977  0.60419861    -0.24200
C1190       C  0.79417323  0.64903818  0.53422544    -0.28800
C1191       C  0.78176352  0.60799056  0.53521315     0.06800
C1192       C  0.77359579  0.58852400  0.55396725    -0.27500
H1193       H  0.81534587  0.72656029  0.53636728     0.11500
H1194       H  0.81877246  0.76255797  0.56684977     0.12600
H1195       H  0.75932412  0.55837873  0.59132469     0.11700
H1196       H  0.76288031  0.59436443  0.62175861     0.10900
H1197       H  0.77171980  0.65458333  0.63783943     0.16300
H1198       H  0.80761185  0.76213267  0.60326170     0.12200
H1199       H  0.80045356  0.66441782  0.51985392     0.15100
H1200       H  0.76423057  0.55700726  0.55494361     0.14900
C1201       C  0.67068166  0.79418669  0.55506832    -0.18000
C1202       C  0.67319607  0.77447079  0.57231621    -0.20200
C1203       C  0.69061691  0.79581074  0.58981503     0.20500
C1204       C  0.70491375  0.83734888  0.59000204    -0.03100
C1205       C  0.70224254  0.85718846  0.57262877    -0.06200
C1206       C  0.68548253  0.83556986  0.55501158     0.20700
C1207       C  0.71742869  0.89883905  0.57273813     0.18900
C1208       C  0.73440322  0.92014859  0.59027939    -0.17700
C1209       C  0.73732453  0.90058338  0.60742729    -0.19900
C1210       C  0.72309703  0.85934746  0.60734631     0.20400
C1211       C  0.72810972  0.84004789  0.62407446    -0.32900
C1212       C  0.71520457  0.79900539  0.62381187     0.01100
C1213       C  0.69543665  0.77673883  0.60685674    -0.24200
C1214       C  0.68495483  0.85588840  0.53750380    -0.28800
C1215       C  0.70132210  0.89766776  0.53728998     0.06800
C1216       C  0.71659156  0.91869438  0.55515565    -0.27500
H1217       H  0.65769110  0.77711471  0.54164487     0.11500
H1218       H  0.66215505  0.74265289  0.57186136     0.12600
H1219       H  0.74615765  0.95214184  0.59061983     0.11700
H1220       H  0.75131789  0.91782926  0.62066888     0.10900
H1221       H  0.74334821  0.85730437  0.63715230     0.16300
H1222       H  0.68595194  0.74520887  0.60651628     0.12200
H1223       H  0.67287936  0.83920360  0.52388564     0.15100
H1224       H  0.72906040  0.95081331  0.55528116     0.14900
C1225       C  0.81076900  0.58696880  0.40951931    -0.18000
C1226       C  0.83280830  0.60677965  0.39248201    -0.20200
C1227       C  0.86017777  0.64782931  0.39286844     0.20500
C1228       C  0.86437973  0.66959276  0.41029559    -0.03100
C1229       C  0.84223094  0.64949088  0.42756548    -0.06200
C1230       C  0.81587553  0.60786631  0.42723260     0.20700
C1231       C  0.84761687  0.67069361  0.44534015     0.18900
C1232       C  0.87393614  0.71210019  0.44544437    -0.17700
C1233       C  0.89589409  0.73208487  0.42829211    -0.19900
C1234       C  0.89194555  0.71099354  0.41072416     0.20400
C1235       C  0.91635220  0.72996294  0.39393365    -0.32900
C1236       C  0.91381323  0.70760129  0.37703530     0.01100
C1237       C  0.88476399  0.66697968  0.37642406    -0.24200
C1238       C  0.79618356  0.58752182  0.44476803    -0.28800
C1239       C  0.80268203  0.60800672  0.46280390     0.06800
C1240       C  0.82768631  0.64985843  0.46282680    -0.27500
H1241       H  0.79046991  0.55504876  0.40899117     0.11500
H1242       H  0.82918211  0.58977335  0.37913062     0.12600
H1243       H  0.87825234  0.72892229  0.45895588     0.11700
H1244       H  0.91669494  0.76382020  0.42892599     0.10900
H1245       H  0.93889337  0.76122579  0.39450789     0.16300
H1246       H  0.88251361  0.64972229  0.36334384     0.12200
H1247       H  0.77670074  0.55542087  0.44445686     0.15100
H1248       H  0.83277594  0.66615382  0.47659406     0.14900
C1249       C  0.90224745  0.66858107  0.23901635    -0.18000
C1250       C  0.88125537  0.66672371  0.22150052    -0.20200
C1251       C  0.85356069  0.68021518  0.22125501     0.20500
C1252       C  0.84613785  0.69464413  0.23901843    -0.03100
C1253       C  0.86751297  0.69682412  0.25663413    -0.06200
C1254       C  0.89607367  0.68416499  0.25659239     0.20700
C1255       C  0.86141851  0.71319155  0.27405562     0.18900
C1256       C  0.83292426  0.72557891  0.27402839    -0.17700
C1257       C  0.81145694  0.72297164  0.25667796    -0.19900
C1258       C  0.81838207  0.70826071  0.23903063     0.18600
C1259       C  0.79907027  0.70836921  0.22125692    -0.32900
C1260       C  0.80756547  0.69585271  0.20321842     0.01100
C1261       C  0.83418927  0.68084987  0.20346096    -0.24200
C1262       C  0.91917329  0.68906624  0.27382327    -0.28800
C1263       C  0.91472358  0.70755441  0.29077283     0.06800
C1264       C  0.88513016  0.71855374  0.29092981    -0.27500
H1265       H  0.92398729  0.65871552  0.23868484     0.11500
H1266       H  0.88725323  0.65539489  0.20801609     0.12600
H1267       H  0.82781404  0.73805020  0.28732821     0.11700
H1268       H  0.79011508  0.73342642  0.25692730     0.10900
H1269       H  0.77840171  0.71967320  0.22140463     0.16300
H1270       H  0.84085604  0.67085560  0.18970818     0.12200
H1271       H  0.94228066  0.68099110  0.27359216     0.15100
H1272       H  0.88159509  0.73273192  0.30401802     0.14900
C1273       C  0.61845498  0.82291547  0.22107798    -0.18000
C1274       C  0.59862614  0.82357166  0.23840537    -0.20200
C1275       C  0.60083580  0.80464478  0.25610280     0.20500
C1276       C  0.62433502  0.78595538  0.25642074    -0.03100
C1277       C  0.64420899  0.78518130  0.23892985    -0.06200
C1278       C  0.64080135  0.80326073  0.22109645     0.20700
C1279       C  0.66655239  0.76531245  0.23917493     0.18900
C1280       C  0.66986693  0.74749966  0.25699556    -0.17700
C1281       C  0.65020955  0.74822934  0.27427665    -0.19900
C1282       C  0.62687953  0.76675983  0.27402842     0.20400
C1283       C  0.60468540  0.76482288  0.29084340    -0.32900
C1284       C  0.57947090  0.78137065  0.29039195     0.01100
C1285       C  0.57868107  0.80249657  0.27319340    -0.24200
C1286       C  0.65906700  0.80059703  0.20353742    -0.28800
C1287       C  0.68055942  0.77985755  0.20351358     0.06800
C1288       C  0.68452160  0.76281396  0.22153869    -0.27500
H1289       H  0.61570051  0.83719712  0.20752792     0.11500
H1290       H  0.58092468  0.83819925  0.23784971     0.12600
H1291       H  0.68710993  0.73234428  0.25747791     0.11700
H1292       H  0.65255159  0.73350792  0.28774538     0.10900
H1293       H  0.60571758  0.74878458  0.30411043     0.16300
H1294       H  0.55915429  0.81512222  0.27270455     0.12200
H1295       H  0.65587702  0.81411146  0.18980602     0.15100
H1296       H  0.70116220  0.74702469  0.22184086     0.14900
C1297       C  0.59261048  0.77154541  0.43062315    -0.18000
C1298       C  0.61243357  0.79189682  0.44794064    -0.20200
C1299       C  0.63835887  0.83336795  0.44735377     0.20500
C1300       C  0.64541607  0.85431087  0.42898826    -0.03100
C1301       C  0.62541313  0.83380866  0.41152415    -0.06200
C1302       C  0.59835285  0.79231045  0.41239517     0.20700
C1303       C  0.63123331  0.85519210  0.39338688     0.18900
C1304       C  0.65818923  0.89637047  0.39261274    -0.17700
C1305       C  0.67812752  0.91659767  0.40986158    -0.19900
C1306       C  0.67133031  0.89600194  0.42818659     0.20400
C1307       C  0.68898950  0.91664106  0.44579488    -0.32900
C1308       C  0.68096535  0.89633578  0.46433533     0.01100
C1309       C  0.65631648  0.85445652  0.46487888    -0.24200
C1310       C  0.57614408  0.77279837  0.39529109    -0.28800
C1311       C  0.58010049  0.79460795  0.37756634     0.06800
C1312       C  0.60859180  0.83545941  0.37658160    -0.27500
H1313       H  0.57206950  0.73973644  0.43159276     0.11500
H1314       H  0.60680107  0.77528057  0.46191437     0.12600
H1315       H  0.66312622  0.91314364  0.37874416     0.11700
H1316       H  0.69813788  0.94856327  0.40896644     0.10900
H1317       H  0.70823633  0.94876211  0.44507932     0.16300
H1318       H  0.65004754  0.83830144  0.47902836     0.12200
H1319       H  0.55399334  0.74138471  0.39615913     0.15100
H1320       H  0.61189081  0.85233685  0.36289055     0.14900
C1321       C  0.92112300  0.73557928  0.74327689    -0.18000
C1322       C  0.90074983  0.73567436  0.72593095    -0.20200
C1323       C  0.85980966  0.72261962  0.72659509     0.20500
C1324       C  0.83884264  0.70808413  0.74476334    -0.03100
C1325       C  0.85950846  0.70822384  0.76232628    -0.06200
C1326       C  0.90093497  0.72253589  0.76159585     0.20700
C1327       C  0.83897798  0.69519029  0.78068696     0.18900
C1328       C  0.79780302  0.68123326  0.78122019    -0.17700
C1329       C  0.77729182  0.68104722  0.76381081    -0.19900
C1330       C  0.79760247  0.69489375  0.74553823     0.20400
C1331       C  0.77793494  0.69767925  0.72828152    -0.32900
C1332       C  0.79937719  0.71451333  0.71050459     0.01100
C1333       C  0.83994707  0.72570949  0.70963924    -0.24200
C1334       C  0.92167300  0.72445598  0.77923341    -0.28800
C1335       C  0.90171158  0.71238823  0.79771895     0.06800
C1336       C  0.86014439  0.69720265  0.79822825    -0.27500
H1337       H  0.95289800  0.74647608  0.74243642     0.11500
H1338       H  0.91721697  0.74677997  0.71205439     0.12600
H1339       H  0.78151758  0.67102386  0.79520575     0.11700
H1340       H  0.74571568  0.67085861  0.76472259     0.10900
H1341       H  0.74678922  0.68945082  0.72906716     0.16300
H1342       H  0.85654791  0.73862339  0.69592002     0.12200
H1343       H  0.95358052  0.73594845  0.77856085     0.15100
H1344       H  0.84428030  0.68773679  0.81235336     0.14900
C1345       C  0.73496078  0.82682168  0.76270060    -0.18000
C1346       C  0.71530127  0.82722501  0.78009844    -0.20200
C1347       C  0.67415579  0.81335933  0.77987698     0.20500
C1348       C  0.65279099  0.80003929  0.76180260    -0.03100
C1349       C  0.67256238  0.79946317  0.74427222    -0.06200
C1350       C  0.71376320  0.81239572  0.74478908     0.20700
C1351       C  0.65074337  0.78436229  0.72645400     0.18900
C1352       C  0.60988323  0.77176222  0.72603103    -0.17700
C1353       C  0.59038945  0.77265757  0.74335053    -0.19900
C1354       C  0.61140468  0.78596896  0.76138397     0.20400
C1355       C  0.59151204  0.78428974  0.77910277    -0.32900
C1356       C  0.61227771  0.79618937  0.79735438     0.01100
C1357       C  0.65380940  0.81148107  0.79750519    -0.24200
C1358       C  0.73255478  0.80878925  0.72768752    -0.28800
C1359       C  0.71027722  0.79131910  0.71036756     0.06800
C1360       C  0.66973736  0.78031678  0.70966185    -0.27500
H1361       H  0.76653180  0.83687700  0.76337229     0.11500
H1362       H  0.73220191  0.83770987  0.79385608     0.12600
H1363       H  0.59280001  0.76033487  0.71240558     0.11700
H1364       H  0.55862837  0.76200612  0.74275515     0.10900
H1365       H  0.55957797  0.77279797  0.77870921     0.16300
H1366       H  0.67023768  0.82089516  0.81144804     0.12200
H1367       H  0.76369772  0.81694361  0.72829538     0.15100
H1368       H  0.65255564  0.76700605  0.69623450     0.14900
C1369       C  0.73991489  0.83930122  0.06069774    -0.18000
C1370       C  0.73897946  0.81813727  0.07801941    -0.20200
C1371       C  0.72429676  0.82410784  0.09596637     0.20500
C1372       C  0.71005298  0.85137644  0.09645105    -0.03100
C1373       C  0.71087634  0.87267252  0.07894215    -0.06200
C1374       C  0.72616550  0.86674092  0.06106281     0.20700
C1375       C  0.69734212  0.90056926  0.07944208     0.18900
C1376       C  0.68282053  0.90658434  0.09744546    -0.17700
C1377       C  0.68193122  0.88537931  0.11480750    -0.19900
C1378       C  0.69556647  0.85781764  0.11447834     0.20400
C1379       C  0.69537989  0.83692083  0.13188885    -0.32900
C1380       C  0.70974488  0.80982443  0.13155176     0.01100
C1381       C  0.72401287  0.80355662  0.11346285    -0.24200
C1382       C  0.72890663  0.88947250  0.04404501    -0.28800
C1383       C  0.71692212  0.91835023  0.04460339     0.06800
C1384       C  0.70006103  0.92302453  0.06214595    -0.27500
H1385       H  0.75184363  0.83456372  0.04706224     0.11500
H1386       H  0.75005918  0.79732093  0.07741970     0.12600
H1387       H  0.67254440  0.92799367  0.09814987     0.11700
H1388       H  0.67081704  0.89076563  0.12855789     0.10900
H1389       H  0.68450794  0.84220483  0.14574881     0.16300
H1390       H  0.73520790  0.78281863  0.11296187     0.12200
H1391       H  0.74203628  0.88592413  0.03050580     0.15100
H1392       H  0.69147563  0.94576472  0.06268877     0.14900
C1393       C  0.83872023  0.60519781  0.09369252    -0.18000
C1394       C  0.83839049  0.62474742  0.11106929    -0.20200
C1395       C  0.81941846  0.64770477  0.11126597     0.20500
C1396       C  0.80245387  0.65275070  0.09348238    -0.03100
C1397       C  0.80271299  0.63296693  0.07595219    -0.06200
C1398       C  0.82001064  0.60819648  0.07620391     0.20700
C1399       C  0.78366243  0.63617773  0.05852923     0.18900
C1400       C  0.76673013  0.66098827  0.05835177    -0.17700
C1401       C  0.76667435  0.68072997  0.07567372    -0.19900
C1402       C  0.78343118  0.67588624  0.09346216     0.20400
C1403       C  0.77987598  0.69221523  0.11139897    -0.32900
C1404       C  0.79460776  0.68536410  0.12949570     0.01100
C1405       C  0.81555239  0.66416401  0.12910825    -0.24200
C1406       C  0.81608881  0.58500565  0.05942538    -0.28800
C1407       C  0.79422066  0.58567072  0.04268895     0.06800
C1408       C  0.77971212  0.61266133  0.04202185    -0.27500
H1409       H  0.85240716  0.58661146  0.09413941     0.11500
H1410       H  0.85193543  0.62087669  0.12456604     0.12600
H1411       H  0.75232200  0.66404281  0.04500331     0.11700
H1412       H  0.75229292  0.69874352  0.07533420     0.10900
H1413       H  0.76417623  0.70897418  0.11135185     0.16300
H1414       H  0.82757620  0.65907424  0.14284960     0.12200
H1415       H  0.82739084  0.56434045  0.05998516     0.15100
H1416       H  0.76335076  0.61376464  0.02899238     0.14900
C1417       C  0.61220685  0.83677289  0.94181950    -0.18000
C1418       C  0.59257332  0.81637618  0.92452834    -0.20200
C1419       C  0.61272541  0.82579015  0.90614755     0.20500
C1420       C  0.65341143  0.85530337  0.90529543    -0.03100
C1421       C  0.67333106  0.87577017  0.92278759    -0.06200
C1422       C  0.65238715  0.86683455  0.94104646     0.20700
C1423       C  0.71377791  0.90604009  0.92186988     0.18900
C1424       C  0.73401684  0.91511645  0.90351339    -0.17700
C1425       C  0.71426255  0.89482509  0.88619043    -0.19900
C1426       C  0.67391417  0.86512660  0.88688434     0.20400
C1427       C  0.65347345  0.84582953  0.86942346    -0.32900
C1428       C  0.61257047  0.81716216  0.87001495     0.01100
C1429       C  0.59264084  0.80692718  0.88855006    -0.24200
C1430       C  0.67151353  0.88917952  0.95801944    -0.28800
C1431       C  0.71140179  0.92013601  0.95709140     0.06800
C1432       C  0.73275433  0.92772999  0.93912853    -0.27500
H1433       H  0.59575846  0.82949283  0.95575180     0.11500
H1434       H  0.56135374  0.79367538  0.92546684     0.12600
H1435       H  0.76494607  0.93832289  0.90249462     0.11700
H1436       H  0.73046512  0.90278786  0.87214678     0.10900
H1437       H  0.66926103  0.85406759  0.85525980     0.16300
H1438       H  0.56122036  0.78471006  0.88927290     0.12200
H1439       H  0.65492946  0.88346077  0.97185343     0.15100
H1440       H  0.76323095  0.95209359  0.93827812     0.14900
C1441       C  0.92478545  0.67846473  0.92381242    -0.18000
C1442       C  0.90451842  0.65811381  0.94117052    -0.20200
C1443       C  0.86297851  0.63324807  0.94093315     0.20500
C1444       C  0.84143759  0.62939499  0.92321439    -0.03100
C1445       C  0.86193117  0.64979427  0.90567461    -0.06200
C1446       C  0.90381971  0.67416480  0.90595208     0.20700
C1447       C  0.84061001  0.64500657  0.88776492     0.18900
C1448       C  0.79900640  0.62047212  0.88763313    -0.17700
C1449       C  0.77865948  0.60020824  0.90502702    -0.19900
C1450       C  0.79960293  0.60414690  0.92285027     0.20400
C1451       C  0.77975674  0.58192343  0.94004086    -0.32900
C1452       C  0.80151150  0.58417361  0.95733308     0.01100
C1453       C  0.84283327  0.61080511  0.95786385    -0.24200
C1454       C  0.92409188  0.69315436  0.88828753    -0.28800
C1455       C  0.90314516  0.68796617  0.87025296     0.06800
C1456       C  0.86131363  0.66418479  0.87021529    -0.27500
H1457       H  0.95695788  0.69711252  0.92427801     0.11500
H1458       H  0.92141075  0.66128516  0.95470656     0.12600
H1459       H  0.78219799  0.61651311  0.87396485     0.11700
H1460       H  0.74664034  0.58093348  0.90445472     0.10900
H1461       H  0.74800635  0.56103608  0.93955087     0.16300
H1462       H  0.85967808  0.61264032  0.97126162     0.12200
H1463       H  0.95631873  0.71147579  0.88856513     0.15100
H1464       H  0.84476274  0.65992686  0.85642681     0.14900
loop_ 
_geom_bond_atom_site_label_1 
_geom_bond_atom_site_label_2 
_geom_bond_distance 
_geom_bond_site_symmetry_2 
_ccdc_geom_bond_type 
O1            V9   1.919       .  S
O1           C11   1.270       .  A
O2          V375   1.918   1_556  S
O2           C12   1.270       .  A
O3            V9   1.887   1_556  S
O3           C13   1.261       .  A
O4          V375   1.884       .  S
O4           C14   1.261       .  A
O5           V10   1.921       .  S
O5           C14   1.270       .  A
O6          V376   1.920   1_556  S
O6           C13   1.270       .  A
O7           V10   1.872   1_556  S
O7           C12   1.259       .  A
O8          V376   1.877       .  S
O8           C11   1.260       .  A
V9          O368   1.918   1_554  S
V9          O370   1.884       .  S
V9          V376   2.075       .  T
V10         O372   1.920   1_544  S
V10         O374   1.877   1_545  S
V10         V375   2.075       .  T
C11         C285   1.472       .  S
C12         C354   1.470       .  S
C13         C333   1.476       .  S
C14         C309   1.479       .  S
C15         C258   1.484       .  S
C15          N16   1.360       .  A
C15          N20   1.359       .  A
N16          C17   1.360       .  A
C17         C330   1.487       .  S
C17          N18   1.361       .  A
N18          C19   1.359       .  A
C19         C755   1.471   1_455  S
C19          N20   1.356       .  A
C21         C237   1.488       .  S
C21          N22   1.362       .  A
C21          N26   1.358       .  A
N22          C23   1.360       .  A
C23         C751   1.471       .  S
C23          N24   1.356       .  A
N24          C25   1.359       .  A
C25         C357   1.482       .  S
C25          N26   1.359       .  A
O27          V35   1.917       .  S
O27          C37   1.269       .  A
O28         V767   1.917   1_455  S
O28          C38   1.269       .  A
O29          V35   1.883       .  S
O29          C39   1.262       .  A
O30         V767   1.884   1_455  S
O30          C40   1.262       .  A
O31          V36   1.922   1_455  S
O31          C40   1.270       .  A
O32         V768   1.922       .  S
O32          C39   1.269       .  A
O33          V36   1.888   1_455  S
O33          C38   1.263       .  A
O34         V768   1.888       .  S
O34          C37   1.262       .  A
V35         O760   1.917       .  S
V35         O762   1.884       .  S
V35         V768   2.076       .  T
V36         O764   1.922       .  S
V36         O766   1.888       .  S
V36         V767   2.076       .  T
C37         C165   1.476       .  S
C38         C213   1.478       .  S
C39         C138   1.478       .  S
C40         C186   1.481       .  S
C41         C306   1.490       .  S
C41          N42   1.362       .  A
C41          N46   1.362       .  A
N42          C43   1.359       .  A
C43          C49   1.473       .  S
C43          N44   1.355       .  A
N44          C45   1.360       .  A
C45         C162   1.487       .  S
C45          N46   1.361       .  A
C47         C189   1.490       .  S
C47          N48   1.364       .  A
C47          N52   1.360       .  A
N48          C49   1.361       .  A
C49          N50   1.355       .  A
N50          C51   1.358       .  A
C51         C282   1.482       .  S
C51          N52   1.359       .  A
O53          V61   1.920       .  S
O53          C63   1.270       .  A
O54          V61   1.917       .  S
O54          C64   1.269       .  A
O55          V61   1.882       .  S
O55          C65   1.261       .  A
O56          V61   1.884       .  S
O56          C66   1.261       .  A
O57          V62   1.916       .  S
O57          C66   1.269       .  A
O58          V62   1.916       .  S
O58          C65   1.268       .  A
O59          V62   1.883       .  S
O59          C64   1.261       .  A
O60          V62   1.887       .  S
O60          C63   1.262       .  A
V61          V62   2.075       .  T
C63         C234   1.478       .  S
C64         C114   1.475       .  S
C65          C90   1.471       .  S
C66         C261   1.473       .  S
C67          C93   1.483       .  S
C67          N68   1.357       .  A
C67          N72   1.361       .  A
N68          C69   1.356       .  A
C69         C141   1.485       .  S
C69          N70   1.362       .  A
N70          C71   1.360       .  A
C71         C443   1.476   1_545  S
C71          N72   1.360       .  A
C73         C117   1.486       .  S
C73          N74   1.359       .  A
C73          N78   1.361       .  A
N74          C75   1.359       .  A
C75         C210   1.488       .  S
C75          N76   1.362       .  A
N76          C77   1.360       .  A
C77         C437   1.476       .  S
C77          N78   1.359       .  A
C79          C80   1.401       .  A
C79          C84   1.405       .  A
C79          H95   1.084       .  S
C80          C81   1.404       .  A
C80          H96   1.083       .  S
C81          C91   1.407       .  A
C81          C82   1.414       .  A
C82          C88   1.410       .  A
C82          C83   1.411       .  A
C83          C85   1.413       .  A
C83          C84   1.410       .  A
C84          C92   1.403       .  A
C85          C94   1.402       .  A
C85          C86   1.402       .  A
C86          C87   1.397       .  A
C86          H97   1.084       .  S
C87          C88   1.403       .  A
C87          H98   1.084       .  S
C88          C89   1.398       .  A
C89          C90   1.404       .  A
C89          H99   1.085       .  S
C90          C91   1.406       .  A
C91         H100   1.084       .  S
C92          C93   1.410       .  A
C92         H101   1.085       .  S
C93          C94   1.406       .  A
C94         H102   1.085       .  S
C103        C104   1.400       .  A
C103        C108   1.405       .  A
C103        H119   1.085       .  S
C104        C105   1.404       .  A
C104        H120   1.083       .  S
C105        C115   1.407       .  A
C105        C106   1.414       .  A
C106        C112   1.410       .  A
C106        C107   1.412       .  A
C107        C109   1.412       .  A
C107        C108   1.410       .  A
C108        C116   1.404       .  A
C109        C118   1.402       .  A
C109        C110   1.403       .  A
C110        C111   1.397       .  A
C110        H121   1.085       .  S
C111        C112   1.403       .  A
C111        H122   1.084       .  S
C112        C113   1.399       .  A
C113        C114   1.406       .  A
C113        H123   1.085       .  S
C114        C115   1.405       .  A
C115        H124   1.084       .  S
C116        C117   1.410       .  A
C116        H125   1.085       .  S
C117        C118   1.407       .  A
C118        H126   1.085       .  S
C127        C128   1.396       .  A
C127        C132   1.402       .  A
C127        H143   1.084       .  S
C128        C129   1.402       .  A
C128        H144   1.084       .  S
C129        C139   1.397       .  A
C129        C130   1.409       .  A
C130        C136   1.414       .  A
C130        C131   1.412       .  A
C131        C133   1.410       .  A
C131        C132   1.413       .  A
C132        C140   1.400       .  A
C133        C142   1.405       .  A
C133        C134   1.405       .  A
C134        C135   1.402       .  A
C134        H145   1.085       .  S
C135        C136   1.405       .  A
C135        H146   1.083       .  S
C136        C137   1.411       .  A
C137        C138   1.407       .  A
C137        H147   1.083       .  S
C138        C139   1.405       .  A
C139        H148   1.085       .  S
C140        C141   1.405       .  A
C140        H149   1.085       .  S
C141        C142   1.412       .  A
C142        H150   1.085       .  S
C151        C152   1.402       .  A
C151        C156   1.405       .  A
C151        H167   1.082       .  S
C152        C153   1.405       .  A
C152        H168   1.085       .  S
C153        C163   1.407       .  A
C153        C154   1.411       .  A
C154        C160   1.411       .  A
C154        C155   1.413       .  A
C155        C157   1.411       .  A
C155        C156   1.413       .  A
C156        C164   1.408       .  A
C157        C166   1.400       .  A
C157        C158   1.403       .  A
C158        C159   1.396       .  A
C158        H169   1.084       .  S
C159        C160   1.403       .  A
C159        H170   1.085       .  S
C160        C161   1.399       .  A
C161        C162   1.408       .  A
C161        H171   1.085       .  S
C162        C163   1.410       .  A
C163        H172   1.085       .  S
C164        C165   1.406       .  A
C164        H173   1.083       .  S
C165        C166   1.405       .  A
C166        H174   1.085       .  S
C175        C176   1.402       .  A
C175        C180   1.406       .  A
C175        H191   1.085       .  S
C176        C177   1.405       .  A
C176        H192   1.083       .  S
C177        C187   1.411       .  A
C177        C178   1.414       .  A
C178        C184   1.409       .  A
C178        C179   1.414       .  A
C179        C181   1.412       .  A
C179        C180   1.410       .  A
C180        C188   1.407       .  A
C181        C190   1.403       .  A
C181        C182   1.402       .  A
C182        C183   1.397       .  A
C182        H193   1.084       .  S
C183        C184   1.403       .  A
C183        H194   1.084       .  S
C184        C185   1.399       .  A
C185        C186   1.407       .  A
C185        H195   1.085       .  S
C186        C187   1.408       .  A
C187        H196   1.084       .  S
C188        C189   1.412       .  A
C188        H197   1.085       .  S
C189        C190   1.407       .  A
C190        H198   1.085       .  S
C199        C200   1.401       .  A
C199        C204   1.404       .  A
C199        H215   1.083       .  S
C200        C201   1.405       .  A
C200        H216   1.085       .  S
C201        C211   1.406       .  A
C201        C202   1.410       .  A
C202        C208   1.412       .  A
C202        C203   1.413       .  A
C203        C205   1.410       .  A
C203        C204   1.413       .  A
C204        C212   1.408       .  A
C205        C214   1.400       .  A
C205        C206   1.403       .  A
C206        C207   1.397       .  A
C206        H217   1.084       .  S
C207        C208   1.403       .  A
C207        H218   1.084       .  S
C208        C209   1.402       .  A
C209        C210   1.407       .  A
C209        H219   1.084       .  S
C210        C211   1.411       .  A
C211        H220   1.085       .  S
C212        C213   1.407       .  A
C212        H221   1.084       .  S
C213        C214   1.406       .  A
C214        H222   1.085       .  S
C223        C224   1.398       .  A
C223        C228   1.403       .  A
C223        H239   1.084       .  S
C224        C225   1.403       .  A
C224        H240   1.084       .  S
C225        C235   1.401       .  A
C225        C226   1.410       .  A
C226        C232   1.413       .  A
C226        C227   1.414       .  A
C227        C229   1.410       .  A
C227        C228   1.412       .  A
C228        C236   1.403       .  A
C229        C238   1.406       .  A
C229        C230   1.405       .  A
C230        C231   1.401       .  A
C230        H241   1.085       .  S
C231        C232   1.404       .  A
C231        H242   1.083       .  S
C232        C233   1.409       .  A
C233        C234   1.406       .  A
C233        H243   1.084       .  S
C234        C235   1.406       .  A
C235        H244   1.085       .  S
C236        C237   1.407       .  A
C236        H245   1.085       .  S
C237        C238   1.411       .  A
C238        H246   1.085       .  S
C247        C248   1.400       .  A
C247        C252   1.403       .  A
C247        H263   1.082       .  S
C248        C249   1.404       .  A
C248        H264   1.085       .  S
C249        C259   1.404       .  A
C249        C250   1.411       .  A
C250        C256   1.411       .  A
C250        C251   1.411       .  A
C251        C253   1.410       .  A
C251        C252   1.413       .  A
C252        C260   1.406       .  A
C253        C262   1.400       .  A
C253        C254   1.403       .  A
C254        C255   1.397       .  A
C254        H265   1.084       .  S
C255        C256   1.403       .  A
C255        H266   1.085       .  S
C256        C257   1.401       .  A
C257        C258   1.408       .  A
C257        H267   1.085       .  S
C258        C259   1.409       .  A
C259        H268   1.085       .  S
C260        C261   1.404       .  A
C260        H269   1.083       .  S
C261        C262   1.406       .  A
C262        H270   1.085       .  S
C271        C272   1.396       .  A
C271        C276   1.403       .  A
C271        H287   1.084       .  S
C272        C273   1.403       .  A
C272        H288   1.084       .  S
C273        C283   1.400       .  A
C273        C274   1.412       .  A
C274        C280   1.410       .  A
C274        C275   1.411       .  A
C275        C277   1.414       .  A
C275        C276   1.410       .  A
C276        C284   1.397       .  A
C277        C286   1.406       .  A
C277        C278   1.403       .  A
C278        C279   1.400       .  A
C278        H289   1.083       .  S
C279        C280   1.404       .  A
C279        H290   1.084       .  S
C280        C281   1.403       .  A
C281        C282   1.408       .  A
C281        H291   1.084       .  S
C282        C283   1.407       .  A
C283        H292   1.085       .  S
C284        C285   1.406       .  A
C284        H293   1.085       .  S
C285        C286   1.404       .  A
C286        H294   1.084       .  S
C295        C296   1.400       .  A
C295        C300   1.403       .  A
C295        H311   1.083       .  S
C296        C297   1.404       .  A
C296        H312   1.085       .  S
C297        C307   1.405       .  A
C297        C298   1.410       .  A
C298        C304   1.412       .  A
C298        C299   1.413       .  A
C299        C301   1.410       .  A
C299        C300   1.414       .  A
C300        C308   1.408       .  A
C301        C310   1.400       .  A
C301        C302   1.404       .  A
C302        C303   1.398       .  A
C302        H313   1.084       .  S
C303        C304   1.403       .  A
C303        H314   1.085       .  S
C304        C305   1.404       .  A
C305        C306   1.409       .  A
C305        H315   1.086       .  S
C306        C307   1.410       .  A
C307        H316   1.085       .  S
C308        C309   1.405       .  A
C308        H317   1.084       .  S
C309        C310   1.408       .  A
C310        H318   1.085       .  S
C319        C320   1.399       .  A
C319        C324   1.404       .  A
C319        H335   1.084       .  S
C320        C321   1.403       .  A
C320        H336   1.085       .  S
C321        C331   1.404       .  A
C321        C322   1.412       .  A
C322        C328   1.410       .  A
C322        C323   1.413       .  A
C323        C325   1.413       .  A
C323        C324   1.411       .  A
C324        C332   1.402       .  A
C325        C334   1.407       .  A
C325        C326   1.404       .  A
C326        C327   1.400       .  A
C326        H337   1.082       .  S
C327        C328   1.404       .  A
C327        H338   1.085       .  S
C328        C329   1.404       .  A
C329        C330   1.410       .  A
C329        H339   1.085       .  S
C330        C331   1.408       .  A
C331        H340   1.085       .  S
C332        C333   1.406       .  A
C332        H341   1.085       .  S
C333        C334   1.405       .  A
C334        H342   1.084       .  S
C343        C344   1.397       .  A
C343        C348   1.403       .  A
C343        H359   1.085       .  S
C344        C345   1.403       .  A
C344        H360   1.084       .  S
C345        C355   1.396       .  A
C345        C346   1.409       .  A
C346        C352   1.414       .  A
C346        C347   1.410       .  A
C347        C349   1.410       .  A
C347        C348   1.412       .  A
C348        C356   1.401       .  A
C349        C358   1.401       .  A
C349        C350   1.404       .  A
C350        C351   1.399       .  A
C350        H361   1.085       .  S
C351        C352   1.403       .  A
C351        H362   1.083       .  S
C352        C353   1.405       .  A
C353        C354   1.402       .  A
C353        H363   1.084       .  S
C354        C355   1.407       .  A
C355        H364   1.086       .  S
C356        C357   1.408       .  A
C356        H365   1.085       .  S
C357        C358   1.408       .  A
C358        H366   1.085       .  S
O367        V375   1.919   1_565  S
O367        C377   1.270       .  A
O368        C378   1.270       .  A
O369        V375   1.887   1_566  S
O369        C379   1.261       .  A
O370        C380   1.261       .  A
O371        V376   1.921       .  S
O371        C380   1.270       .  A
O372        C379   1.270       .  A
O373        V376   1.872   1_556  S
O373        C378   1.259       .  A
O374        C377   1.260       .  A
C377        C651   1.472       .  S
C378        C720   1.470       .  S
C379        C699   1.476       .  S
C380        C675   1.479       .  S
C381        C624   1.484       .  S
C381        N382   1.360       .  A
C381        N386   1.359       .  A
N382        C383   1.360       .  A
C383        C696   1.487       .  S
C383        N384   1.361       .  A
N384        C385   1.359       .  A
C385       C1121   1.471   1_455  S
C385        N386   1.356       .  A
C387        C603   1.488       .  S
C387        N388   1.362       .  A
C387        N392   1.358       .  A
N388        C389   1.360       .  A
C389       C1117   1.471       .  S
C389        N390   1.356       .  A
N390        C391   1.359       .  A
C391        C723   1.482       .  S
C391        N392   1.359       .  A
O393        V401   1.917       .  S
O393        C403   1.269       .  A
O394       V1133   1.917   1_455  S
O394        C404   1.269       .  A
O395        V401   1.883       .  S
O395        C405   1.262       .  A
O396       V1133   1.884   1_455  S
O396        C406   1.262       .  A
O397        V402   1.922   1_455  S
O397        C406   1.270       .  A
O398       V1134   1.922       .  S
O398        C405   1.269       .  A
O399        V402   1.888   1_455  S
O399        C404   1.263       .  A
O400       V1134   1.888       .  S
O400        C403   1.262       .  A
V401       O1126   1.917       .  S
V401       O1128   1.884       .  S
V401       V1134   2.076       .  T
V402       O1130   1.922       .  S
V402       O1132   1.888       .  S
V402       V1133   2.076       .  T
C403        C531   1.476       .  S
C404        C579   1.478       .  S
C405        C504   1.478       .  S
C406        C552   1.481       .  S
C407        C672   1.490       .  S
C407        N408   1.362       .  A
C407        N412   1.362       .  A
N408        C409   1.359       .  A
C409        C415   1.473       .  S
C409        N410   1.355       .  A
N410        C411   1.360       .  A
C411        C528   1.487       .  S
C411        N412   1.361       .  A
C413        C555   1.490       .  S
C413        N414   1.364       .  A
C413        N418   1.360       .  A
N414        C415   1.361       .  A
C415        N416   1.355       .  A
N416        C417   1.358       .  A
C417        C648   1.482       .  S
C417        N418   1.359       .  A
O419        V427   1.920       .  S
O419        C429   1.270       .  A
O420        V427   1.917       .  S
O420        C430   1.269       .  A
O421        V427   1.882       .  S
O421        C431   1.261       .  A
O422        V427   1.884       .  S
O422        C432   1.261       .  A
O423        V428   1.916       .  S
O423        C432   1.269       .  A
O424        V428   1.916       .  S
O424        C431   1.268       .  A
O425        V428   1.883       .  S
O425        C430   1.261       .  A
O426        V428   1.887       .  S
O426        C429   1.262       .  A
V427        V428   2.075       .  T
C429        C600   1.478       .  S
C430        C480   1.475       .  S
C431        C456   1.471       .  S
C432        C627   1.473       .  S
C433        C459   1.483       .  S
C433        N434   1.357       .  A
C433        N438   1.361       .  A
N434        C435   1.356       .  A
C435        C507   1.485       .  S
C435        N436   1.362       .  A
N436        C437   1.360       .  A
C437        N438   1.360       .  A
C439        C483   1.486       .  S
C439        N440   1.359       .  A
C439        N444   1.361       .  A
N440        C441   1.359       .  A
C441        C576   1.488       .  S
C441        N442   1.362       .  A
N442        C443   1.360       .  A
C443        N444   1.359       .  A
C445        C446   1.401       .  A
C445        C450   1.405       .  A
C445        H461   1.084       .  S
C446        C447   1.404       .  A
C446        H462   1.083       .  S
C447        C457   1.407       .  A
C447        C448   1.414       .  A
C448        C454   1.410       .  A
C448        C449   1.411       .  A
C449        C451   1.413       .  A
C449        C450   1.410       .  A
C450        C458   1.403       .  A
C451        C460   1.402       .  A
C451        C452   1.402       .  A
C452        C453   1.397       .  A
C452        H463   1.084       .  S
C453        C454   1.403       .  A
C453        H464   1.084       .  S
C454        C455   1.398       .  A
C455        C456   1.404       .  A
C455        H465   1.085       .  S
C456        C457   1.406       .  A
C457        H466   1.084       .  S
C458        C459   1.410       .  A
C458        H467   1.085       .  S
C459        C460   1.406       .  A
C460        H468   1.085       .  S
C469        C470   1.400       .  A
C469        C474   1.405       .  A
C469        H485   1.085       .  S
C470        C471   1.404       .  A
C470        H486   1.083       .  S
C471        C481   1.407       .  A
C471        C472   1.414       .  A
C472        C478   1.410       .  A
C472        C473   1.412       .  A
C473        C475   1.412       .  A
C473        C474   1.410       .  A
C474        C482   1.404       .  A
C475        C484   1.402       .  A
C475        C476   1.403       .  A
C476        C477   1.397       .  A
C476        H487   1.085       .  S
C477        C478   1.403       .  A
C477        H488   1.084       .  S
C478        C479   1.399       .  A
C479        C480   1.406       .  A
C479        H489   1.085       .  S
C480        C481   1.405       .  A
C481        H490   1.084       .  S
C482        C483   1.410       .  A
C482        H491   1.085       .  S
C483        C484   1.407       .  A
C484        H492   1.085       .  S
C493        C494   1.396       .  A
C493        C498   1.402       .  A
C493        H509   1.084       .  S
C494        C495   1.402       .  A
C494        H510   1.084       .  S
C495        C505   1.397       .  A
C495        C496   1.409       .  A
C496        C502   1.414       .  A
C496        C497   1.412       .  A
C497        C499   1.410       .  A
C497        C498   1.413       .  A
C498        C506   1.400       .  A
C499        C508   1.405       .  A
C499        C500   1.405       .  A
C500        C501   1.402       .  A
C500        H511   1.085       .  S
C501        C502   1.405       .  A
C501        H512   1.083       .  S
C502        C503   1.411       .  A
C503        C504   1.407       .  A
C503        H513   1.083       .  S
C504        C505   1.405       .  A
C505        H514   1.085       .  S
C506        C507   1.405       .  A
C506        H515   1.085       .  S
C507        C508   1.412       .  A
C508        H516   1.085       .  S
C517        C518   1.402       .  A
C517        C522   1.405       .  A
C517        H533   1.082       .  S
C518        C519   1.405       .  A
C518        H534   1.085       .  S
C519        C529   1.407       .  A
C519        C520   1.411       .  A
C520        C526   1.411       .  A
C520        C521   1.413       .  A
C521        C523   1.411       .  A
C521        C522   1.413       .  A
C522        C530   1.408       .  A
C523        C532   1.400       .  A
C523        C524   1.403       .  A
C524        C525   1.396       .  A
C524        H535   1.084       .  S
C525        C526   1.403       .  A
C525        H536   1.085       .  S
C526        C527   1.399       .  A
C527        C528   1.408       .  A
C527        H537   1.085       .  S
C528        C529   1.410       .  A
C529        H538   1.085       .  S
C530        C531   1.406       .  A
C530        H539   1.083       .  S
C531        C532   1.405       .  A
C532        H540   1.085       .  S
C541        C542   1.402       .  A
C541        C546   1.406       .  A
C541        H557   1.085       .  S
C542        C543   1.405       .  A
C542        H558   1.083       .  S
C543        C553   1.411       .  A
C543        C544   1.414       .  A
C544        C550   1.409       .  A
C544        C545   1.414       .  A
C545        C547   1.412       .  A
C545        C546   1.410       .  A
C546        C554   1.407       .  A
C547        C556   1.403       .  A
C547        C548   1.402       .  A
C548        C549   1.397       .  A
C548        H559   1.084       .  S
C549        C550   1.403       .  A
C549        H560   1.084       .  S
C550        C551   1.399       .  A
C551        C552   1.407       .  A
C551        H561   1.085       .  S
C552        C553   1.408       .  A
C553        H562   1.084       .  S
C554        C555   1.412       .  A
C554        H563   1.085       .  S
C555        C556   1.407       .  A
C556        H564   1.084       .  S
C565        C566   1.401       .  A
C565        C570   1.404       .  A
C565        H581   1.083       .  S
C566        C567   1.405       .  A
C566        H582   1.085       .  S
C567        C577   1.406       .  A
C567        C568   1.410       .  A
C568        C574   1.412       .  A
C568        C569   1.413       .  A
C569        C571   1.410       .  A
C569        C570   1.413       .  A
C570        C578   1.408       .  A
C571        C580   1.400       .  A
C571        C572   1.403       .  A
C572        C573   1.397       .  A
C572        H583   1.084       .  S
C573        C574   1.403       .  A
C573        H584   1.084       .  S
C574        C575   1.402       .  A
C575        C576   1.407       .  A
C575        H585   1.084       .  S
C576        C577   1.411       .  A
C577        H586   1.085       .  S
C578        C579   1.407       .  A
C578        H587   1.084       .  S
C579        C580   1.406       .  A
C580        H588   1.085       .  S
C589        C590   1.398       .  A
C589        C594   1.403       .  A
C589        H605   1.084       .  S
C590        C591   1.403       .  A
C590        H606   1.084       .  S
C591        C601   1.401       .  A
C591        C592   1.410       .  A
C592        C598   1.413       .  A
C592        C593   1.414       .  A
C593        C595   1.410       .  A
C593        C594   1.412       .  A
C594        C602   1.403       .  A
C595        C604   1.406       .  A
C595        C596   1.405       .  A
C596        C597   1.401       .  A
C596        H607   1.085       .  S
C597        C598   1.404       .  A
C597        H608   1.083       .  S
C598        C599   1.409       .  A
C599        C600   1.406       .  A
C599        H609   1.084       .  S
C600        C601   1.406       .  A
C601        H610   1.085       .  S
C602        C603   1.407       .  A
C602        H611   1.085       .  S
C603        C604   1.411       .  A
C604        H612   1.085       .  S
C613        C614   1.400       .  A
C613        C618   1.403       .  A
C613        H629   1.082       .  S
C614        C615   1.404       .  A
C614        H630   1.085       .  S
C615        C625   1.404       .  A
C615        C616   1.411       .  A
C616        C622   1.411       .  A
C616        C617   1.411       .  A
C617        C619   1.410       .  A
C617        C618   1.413       .  A
C618        C626   1.406       .  A
C619        C628   1.400       .  A
C619        C620   1.403       .  A
C620        C621   1.397       .  A
C620        H631   1.084       .  S
C621        C622   1.403       .  A
C621        H632   1.085       .  S
C622        C623   1.401       .  A
C623        C624   1.408       .  A
C623        H633   1.085       .  S
C624        C625   1.409       .  A
C625        H634   1.085       .  S
C626        C627   1.404       .  A
C626        H635   1.083       .  S
C627        C628   1.406       .  A
C628        H636   1.085       .  S
C637        C638   1.396       .  A
C637        C642   1.403       .  A
C637        H653   1.084       .  S
C638        C639   1.403       .  A
C638        H654   1.084       .  S
C639        C649   1.400       .  A
C639        C640   1.412       .  A
C640        C646   1.410       .  A
C640        C641   1.411       .  A
C641        C643   1.414       .  A
C641        C642   1.410       .  A
C642        C650   1.397       .  A
C643        C652   1.406       .  A
C643        C644   1.403       .  A
C644        C645   1.400       .  A
C644        H655   1.083       .  S
C645        C646   1.404       .  A
C645        H656   1.084       .  S
C646        C647   1.403       .  A
C647        C648   1.408       .  A
C647        H657   1.084       .  S
C648        C649   1.407       .  A
C649        H658   1.085       .  S
C650        C651   1.406       .  A
C650        H659   1.085       .  S
C651        C652   1.404       .  A
C652        H660   1.084       .  S
C661        C662   1.400       .  A
C661        C666   1.403       .  A
C661        H677   1.083       .  S
C662        C663   1.404       .  A
C662        H678   1.085       .  S
C663        C673   1.405       .  A
C663        C664   1.410       .  A
C664        C670   1.412       .  A
C664        C665   1.413       .  A
C665        C667   1.410       .  A
C665        C666   1.414       .  A
C666        C674   1.408       .  A
C667        C676   1.400       .  A
C667        C668   1.404       .  A
C668        C669   1.398       .  A
C668        H679   1.084       .  S
C669        C670   1.403       .  A
C669        H680   1.085       .  S
C670        C671   1.404       .  A
C671        C672   1.409       .  A
C671        H681   1.086       .  S
C672        C673   1.410       .  A
C673        H682   1.085       .  S
C674        C675   1.405       .  A
C674        H683   1.084       .  S
C675        C676   1.408       .  A
C676        H684   1.085       .  S
C685        C686   1.399       .  A
C685        C690   1.404       .  A
C685        H701   1.084       .  S
C686        C687   1.403       .  A
C686        H702   1.085       .  S
C687        C697   1.404       .  A
C687        C688   1.412       .  A
C688        C694   1.410       .  A
C688        C689   1.413       .  A
C689        C691   1.413       .  A
C689        C690   1.411       .  A
C690        C698   1.402       .  A
C691        C700   1.407       .  A
C691        C692   1.404       .  A
C692        C693   1.400       .  A
C692        H703   1.082       .  S
C693        C694   1.404       .  A
C693        H704   1.085       .  S
C694        C695   1.404       .  A
C695        C696   1.410       .  A
C695        H705   1.085       .  S
C696        C697   1.408       .  A
C697        H706   1.085       .  S
C698        C699   1.406       .  A
C698        H707   1.085       .  S
C699        C700   1.405       .  A
C700        H708   1.084       .  S
C709        C710   1.397       .  A
C709        C714   1.403       .  A
C709        H725   1.085       .  S
C710        C711   1.403       .  A
C710        H726   1.084       .  S
C711        C721   1.396       .  A
C711        C712   1.409       .  A
C712        C718   1.414       .  A
C712        C713   1.410       .  A
C713        C715   1.410       .  A
C713        C714   1.412       .  A
C714        C722   1.401       .  A
C715        C724   1.401       .  A
C715        C716   1.404       .  A
C716        C717   1.399       .  A
C716        H727   1.085       .  S
C717        C718   1.403       .  A
C717        H728   1.083       .  S
C718        C719   1.405       .  A
C719        C720   1.402       .  A
C719        H729   1.084       .  S
C720        C721   1.407       .  A
C721        H730   1.086       .  S
C722        C723   1.408       .  A
C722        H731   1.085       .  S
C723        C724   1.408       .  A
C724        H732   1.085       .  S
O733        V741   1.919       .  S
O733        C743   1.270       .  A
O734       V1107   1.918   1_556  S
O734        C744   1.270       .  A
O735        V741   1.887   1_556  S
O735        C745   1.261       .  A
O736       V1107   1.884       .  S
O736        C746   1.261       .  A
O737        V742   1.921       .  S
O737        C746   1.270       .  A
O738       V1108   1.920   1_556  S
O738        C745   1.270       .  A
O739        V742   1.872   1_556  S
O739        C744   1.259       .  A
O740       V1108   1.877       .  S
O740        C743   1.260       .  A
V741       O1100   1.918   1_554  S
V741       O1102   1.884       .  S
V741       V1108   2.075       .  T
V742       O1104   1.920   1_544  S
V742       O1106   1.877   1_545  S
V742       V1107   2.075       .  T
C743       C1017   1.472       .  S
C744       C1086   1.470       .  S
C745       C1065   1.476       .  S
C746       C1041   1.479       .  S
C747        C990   1.484       .  S
C747        N748   1.360       .  A
C747        N752   1.359       .  A
N748        C749   1.360       .  A
C749       C1062   1.487       .  S
C749        N750   1.361       .  A
N750        C751   1.359       .  A
C751        N752   1.356       .  A
C753        C969   1.488       .  S
C753        N754   1.362       .  A
C753        N758   1.358       .  A
N754        C755   1.360       .  A
C755        N756   1.356       .  A
N756        C757   1.359       .  A
C757       C1089   1.482       .  S
C757        N758   1.359       .  A
O759        V767   1.917       .  S
O759        C769   1.269       .  A
O760        C770   1.269       .  A
O761        V767   1.883       .  S
O761        C771   1.262       .  A
O762        C772   1.262       .  A
O763        V768   1.922       .  S
O763        C772   1.270       .  A
O764        C771   1.269       .  A
O765        V768   1.888       .  S
O765        C770   1.263       .  A
O766        C769   1.262       .  A
C769        C897   1.476       .  S
C770        C945   1.478       .  S
C771        C870   1.478       .  S
C772        C918   1.481       .  S
C773       C1038   1.490       .  S
C773        N774   1.362       .  A
C773        N778   1.362       .  A
N774        C775   1.359       .  A
C775        C781   1.473       .  S
C775        N776   1.355       .  A
N776        C777   1.360       .  A
C777        C894   1.487       .  S
C777        N778   1.361       .  A
C779        C921   1.490       .  S
C779        N780   1.364       .  A
C779        N784   1.360       .  A
N780        C781   1.361       .  A
C781        N782   1.355       .  A
N782        C783   1.358       .  A
C783       C1014   1.482       .  S
C783        N784   1.359       .  A
O785        V793   1.920       .  S
O785        C795   1.270       .  A
O786        V793   1.917       .  S
O786        C796   1.269       .  A
O787        V793   1.882       .  S
O787        C797   1.261       .  A
O788        V793   1.884       .  S
O788        C798   1.261       .  A
O789        V794   1.916       .  S
O789        C798   1.269       .  A
O790        V794   1.916       .  S
O790        C797   1.268       .  A
O791        V794   1.883       .  S
O791        C796   1.261       .  A
O792        V794   1.887       .  S
O792        C795   1.262       .  A
V793        V794   2.075       .  T
C795        C966   1.478       .  S
C796        C846   1.475       .  S
C797        C822   1.471       .  S
C798        C993   1.473       .  S
C799        C825   1.483       .  S
C799        N800   1.357       .  A
C799        N804   1.361       .  A
N800        C801   1.356       .  A
C801        C873   1.485       .  S
C801        N802   1.362       .  A
N802        C803   1.360       .  A
C803       C1175   1.476   1_545  S
C803        N804   1.360       .  A
C805        C849   1.486       .  S
C805        N806   1.359       .  A
C805        N810   1.361       .  A
N806        C807   1.359       .  A
C807        C942   1.488       .  S
C807        N808   1.362       .  A
N808        C809   1.360       .  A
C809       C1169   1.476       .  S
C809        N810   1.359       .  A
C811        C812   1.401       .  A
C811        C816   1.405       .  A
C811        H827   1.084       .  S
C812        C813   1.404       .  A
C812        H828   1.083       .  S
C813        C823   1.407       .  A
C813        C814   1.414       .  A
C814        C820   1.410       .  A
C814        C815   1.411       .  A
C815        C817   1.413       .  A
C815        C816   1.410       .  A
C816        C824   1.403       .  A
C817        C826   1.402       .  A
C817        C818   1.402       .  A
C818        C819   1.397       .  A
C818        H829   1.084       .  S
C819        C820   1.403       .  A
C819        H830   1.084       .  S
C820        C821   1.398       .  A
C821        C822   1.404       .  A
C821        H831   1.085       .  S
C822        C823   1.406       .  A
C823        H832   1.084       .  S
C824        C825   1.410       .  A
C824        H833   1.085       .  S
C825        C826   1.406       .  A
C826        H834   1.085       .  S
C835        C836   1.400       .  A
C835        C840   1.405       .  A
C835        H851   1.085       .  S
C836        C837   1.404       .  A
C836        H852   1.083       .  S
C837        C847   1.407       .  A
C837        C838   1.414       .  A
C838        C844   1.410       .  A
C838        C839   1.412       .  A
C839        C841   1.412       .  A
C839        C840   1.410       .  A
C840        C848   1.404       .  A
C841        C850   1.402       .  A
C841        C842   1.403       .  A
C842        C843   1.397       .  A
C842        H853   1.085       .  S
C843        C844   1.403       .  A
C843        H854   1.084       .  S
C844        C845   1.399       .  A
C845        C846   1.406       .  A
C845        H855   1.085       .  S
C846        C847   1.405       .  A
C847        H856   1.084       .  S
C848        C849   1.410       .  A
C848        H857   1.085       .  S
C849        C850   1.407       .  A
C850        H858   1.085       .  S
C859        C860   1.396       .  A
C859        C864   1.402       .  A
C859        H875   1.084       .  S
C860        C861   1.402       .  A
C860        H876   1.084       .  S
C861        C871   1.397       .  A
C861        C862   1.409       .  A
C862        C868   1.414       .  A
C862        C863   1.412       .  A
C863        C865   1.410       .  A
C863        C864   1.413       .  A
C864        C872   1.400       .  A
C865        C874   1.405       .  A
C865        C866   1.405       .  A
C866        C867   1.402       .  A
C866        H877   1.085       .  S
C867        C868   1.405       .  A
C867        H878   1.083       .  S
C868        C869   1.411       .  A
C869        C870   1.407       .  A
C869        H879   1.083       .  S
C870        C871   1.405       .  A
C871        H880   1.085       .  S
C872        C873   1.405       .  A
C872        H881   1.085       .  S
C873        C874   1.412       .  A
C874        H882   1.085       .  S
C883        C884   1.402       .  A
C883        C888   1.405       .  A
C883        H899   1.082       .  S
C884        C885   1.405       .  A
C884        H900   1.085       .  S
C885        C895   1.407       .  A
C885        C886   1.411       .  A
C886        C892   1.411       .  A
C886        C887   1.413       .  A
C887        C889   1.411       .  A
C887        C888   1.413       .  A
C888        C896   1.408       .  A
C889        C898   1.400       .  A
C889        C890   1.403       .  A
C890        C891   1.396       .  A
C890        H901   1.084       .  S
C891        C892   1.403       .  A
C891        H902   1.085       .  S
C892        C893   1.399       .  A
C893        C894   1.408       .  A
C893        H903   1.085       .  S
C894        C895   1.410       .  A
C895        H904   1.085       .  S
C896        C897   1.406       .  A
C896        H905   1.083       .  S
C897        C898   1.405       .  A
C898        H906   1.085       .  S
C907        C908   1.402       .  A
C907        C912   1.406       .  A
C907        H923   1.085       .  S
C908        C909   1.405       .  A
C908        H924   1.083       .  S
C909        C919   1.411       .  A
C909        C910   1.414       .  A
C910        C916   1.409       .  A
C910        C911   1.414       .  A
C911        C913   1.412       .  A
C911        C912   1.410       .  A
C912        C920   1.407       .  A
C913        C922   1.403       .  A
C913        C914   1.402       .  A
C914        C915   1.397       .  A
C914        H925   1.084       .  S
C915        C916   1.403       .  A
C915        H926   1.084       .  S
C916        C917   1.399       .  A
C917        C918   1.407       .  A
C917        H927   1.085       .  S
C918        C919   1.408       .  A
C919        H928   1.084       .  S
C920        C921   1.412       .  A
C920        H929   1.085       .  S
C921        C922   1.407       .  A
C922        H930   1.085       .  S
C931        C932   1.401       .  A
C931        C936   1.404       .  A
C931        H947   1.083       .  S
C932        C933   1.405       .  A
C932        H948   1.085       .  S
C933        C943   1.406       .  A
C933        C934   1.410       .  A
C934        C940   1.412       .  A
C934        C935   1.413       .  A
C935        C937   1.410       .  A
C935        C936   1.413       .  A
C936        C944   1.408       .  A
C937        C946   1.400       .  A
C937        C938   1.403       .  A
C938        C939   1.397       .  A
C938        H949   1.084       .  S
C939        C940   1.403       .  A
C939        H950   1.084       .  S
C940        C941   1.402       .  A
C941        C942   1.407       .  A
C941        H951   1.084       .  S
C942        C943   1.411       .  A
C943        H952   1.085       .  S
C944        C945   1.407       .  A
C944        H953   1.084       .  S
C945        C946   1.406       .  A
C946        H954   1.085       .  S
C955        C956   1.398       .  A
C955        C960   1.403       .  A
C955        H971   1.084       .  S
C956        C957   1.403       .  A
C956        H972   1.084       .  S
C957        C967   1.401       .  A
C957        C958   1.410       .  A
C958        C964   1.413       .  A
C958        C959   1.414       .  A
C959        C961   1.410       .  A
C959        C960   1.412       .  A
C960        C968   1.403       .  A
C961        C970   1.406       .  A
C961        C962   1.405       .  A
C962        C963   1.401       .  A
C962        H973   1.085       .  S
C963        C964   1.404       .  A
C963        H974   1.083       .  S
C964        C965   1.409       .  A
C965        C966   1.406       .  A
C965        H975   1.084       .  S
C966        C967   1.406       .  A
C967        H976   1.085       .  S
C968        C969   1.407       .  A
C968        H977   1.085       .  S
C969        C970   1.411       .  A
C970        H978   1.085       .  S
C979        C980   1.400       .  A
C979        C984   1.403       .  A
C979        H995   1.082       .  S
C980        C981   1.404       .  A
C980        H996   1.085       .  S
C981        C991   1.404       .  A
C981        C982   1.411       .  A
C982        C988   1.411       .  A
C982        C983   1.411       .  A
C983        C985   1.410       .  A
C983        C984   1.413       .  A
C984        C992   1.406       .  A
C985        C994   1.400       .  A
C985        C986   1.403       .  A
C986        C987   1.397       .  A
C986        H997   1.084       .  S
C987        C988   1.403       .  A
C987        H998   1.085       .  S
C988        C989   1.401       .  A
C989        C990   1.408       .  A
C989        H999   1.085       .  S
C990        C991   1.409       .  A
C991       H1000   1.085       .  S
C992        C993   1.404       .  A
C992       H1001   1.083       .  S
C993        C994   1.406       .  A
C994       H1002   1.085       .  S
C1003      C1004   1.396       .  A
C1003      C1008   1.403       .  A
C1003      H1019   1.084       .  S
C1004      C1005   1.403       .  A
C1004      H1020   1.084       .  S
C1005      C1015   1.400       .  A
C1005      C1006   1.412       .  A
C1006      C1012   1.410       .  A
C1006      C1007   1.411       .  A
C1007      C1009   1.414       .  A
C1007      C1008   1.410       .  A
C1008      C1016   1.397       .  A
C1009      C1018   1.406       .  A
C1009      C1010   1.403       .  A
C1010      C1011   1.400       .  A
C1010      H1021   1.083       .  S
C1011      C1012   1.404       .  A
C1011      H1022   1.084       .  S
C1012      C1013   1.403       .  A
C1013      C1014   1.408       .  A
C1013      H1023   1.084       .  S
C1014      C1015   1.407       .  A
C1015      H1024   1.085       .  S
C1016      C1017   1.406       .  A
C1016      H1025   1.085       .  S
C1017      C1018   1.404       .  A
C1018      H1026   1.084       .  S
C1027      C1028   1.400       .  A
C1027      C1032   1.403       .  A
C1027      H1043   1.083       .  S
C1028      C1029   1.404       .  A
C1028      H1044   1.085       .  S
C1029      C1039   1.405       .  A
C1029      C1030   1.410       .  A
C1030      C1036   1.412       .  A
C1030      C1031   1.413       .  A
C1031      C1033   1.410       .  A
C1031      C1032   1.414       .  A
C1032      C1040   1.408       .  A
C1033      C1042   1.400       .  A
C1033      C1034   1.404       .  A
C1034      C1035   1.398       .  A
C1034      H1045   1.084       .  S
C1035      C1036   1.403       .  A
C1035      H1046   1.085       .  S
C1036      C1037   1.404       .  A
C1037      C1038   1.409       .  A
C1037      H1047   1.086       .  S
C1038      C1039   1.410       .  A
C1039      H1048   1.085       .  S
C1040      C1041   1.405       .  A
C1040      H1049   1.084       .  S
C1041      C1042   1.408       .  A
C1042      H1050   1.085       .  S
C1051      C1052   1.399       .  A
C1051      C1056   1.404       .  A
C1051      H1067   1.084       .  S
C1052      C1053   1.403       .  A
C1052      H1068   1.085       .  S
C1053      C1063   1.404       .  A
C1053      C1054   1.412       .  A
C1054      C1060   1.410       .  A
C1054      C1055   1.413       .  A
C1055      C1057   1.413       .  A
C1055      C1056   1.411       .  A
C1056      C1064   1.402       .  A
C1057      C1066   1.407       .  A
C1057      C1058   1.404       .  A
C1058      C1059   1.400       .  A
C1058      H1069   1.082       .  S
C1059      C1060   1.404       .  A
C1059      H1070   1.085       .  S
C1060      C1061   1.404       .  A
C1061      C1062   1.410       .  A
C1061      H1071   1.085       .  S
C1062      C1063   1.408       .  A
C1063      H1072   1.085       .  S
C1064      C1065   1.406       .  A
C1064      H1073   1.085       .  S
C1065      C1066   1.405       .  A
C1066      H1074   1.084       .  S
C1075      C1076   1.397       .  A
C1075      C1080   1.403       .  A
C1075      H1091   1.085       .  S
C1076      C1077   1.403       .  A
C1076      H1092   1.084       .  S
C1077      C1087   1.396       .  A
C1077      C1078   1.409       .  A
C1078      C1084   1.414       .  A
C1078      C1079   1.410       .  A
C1079      C1081   1.410       .  A
C1079      C1080   1.412       .  A
C1080      C1088   1.401       .  A
C1081      C1090   1.401       .  A
C1081      C1082   1.404       .  A
C1082      C1083   1.399       .  A
C1082      H1093   1.085       .  S
C1083      C1084   1.403       .  A
C1083      H1094   1.083       .  S
C1084      C1085   1.405       .  A
C1085      C1086   1.402       .  A
C1085      H1095   1.084       .  S
C1086      C1087   1.407       .  A
C1087      H1096   1.086       .  S
C1088      C1089   1.408       .  A
C1088      H1097   1.085       .  S
C1089      C1090   1.408       .  A
C1090      H1098   1.085       .  S
O1099      V1107   1.919   1_565  S
O1099      C1109   1.270       .  A
O1100      C1110   1.270       .  A
O1101      V1107   1.887   1_566  S
O1101      C1111   1.261       .  A
O1102      C1112   1.261       .  A
O1103      V1108   1.921       .  S
O1103      C1112   1.270       .  A
O1104      C1111   1.270       .  A
O1105      V1108   1.872   1_556  S
O1105      C1110   1.259       .  A
O1106      C1109   1.260       .  A
C1109      C1383   1.472       .  S
C1110      C1452   1.470       .  S
C1111      C1431   1.476       .  S
C1112      C1407   1.479       .  S
C1113      C1356   1.484       .  S
C1113      N1114   1.360       .  A
C1113      N1118   1.359       .  A
N1114      C1115   1.360       .  A
C1115      C1428   1.487       .  S
C1115      N1116   1.361       .  A
N1116      C1117   1.359       .  A
C1117      N1118   1.356       .  A
C1119      C1335   1.488       .  S
C1119      N1120   1.362       .  A
C1119      N1124   1.358       .  A
N1120      C1121   1.360       .  A
C1121      N1122   1.356       .  A
N1122      C1123   1.359       .  A
C1123      C1455   1.482       .  S
C1123      N1124   1.359       .  A
O1125      V1133   1.917       .  S
O1125      C1135   1.269       .  A
O1126      C1136   1.269       .  A
O1127      V1133   1.883       .  S
O1127      C1137   1.262       .  A
O1128      C1138   1.262       .  A
O1129      V1134   1.922       .  S
O1129      C1138   1.270       .  A
O1130      C1137   1.269       .  A
O1131      V1134   1.888       .  S
O1131      C1136   1.263       .  A
O1132      C1135   1.262       .  A
C1135      C1263   1.476       .  S
C1136      C1311   1.478       .  S
C1137      C1236   1.478       .  S
C1138      C1284   1.481       .  S
C1139      C1404   1.490       .  S
C1139      N1140   1.362       .  A
C1139      N1144   1.362       .  A
N1140      C1141   1.359       .  A
C1141      C1147   1.473       .  S
C1141      N1142   1.355       .  A
N1142      C1143   1.360       .  A
C1143      C1260   1.487       .  S
C1143      N1144   1.361       .  A
C1145      C1287   1.490       .  S
C1145      N1146   1.364       .  A
C1145      N1150   1.360       .  A
N1146      C1147   1.361       .  A
C1147      N1148   1.355       .  A
N1148      C1149   1.358       .  A
C1149      C1380   1.482       .  S
C1149      N1150   1.359       .  A
O1151      V1159   1.920       .  S
O1151      C1161   1.270       .  A
O1152      V1159   1.917       .  S
O1152      C1162   1.269       .  A
O1153      V1159   1.882       .  S
O1153      C1163   1.261       .  A
O1154      V1159   1.884       .  S
O1154      C1164   1.261       .  A
O1155      V1160   1.916       .  S
O1155      C1164   1.269       .  A
O1156      V1160   1.916       .  S
O1156      C1163   1.268       .  A
O1157      V1160   1.883       .  S
O1157      C1162   1.261       .  A
O1158      V1160   1.887       .  S
O1158      C1161   1.262       .  A
V1159      V1160   2.075       .  T
C1161      C1332   1.478       .  S
C1162      C1212   1.475       .  S
C1163      C1188   1.471       .  S
C1164      C1359   1.473       .  S
C1165      C1191   1.483       .  S
C1165      N1166   1.357       .  A
C1165      N1170   1.361       .  A
N1166      C1167   1.356       .  A
C1167      C1239   1.485       .  S
C1167      N1168   1.362       .  A
N1168      C1169   1.360       .  A
C1169      N1170   1.360       .  A
C1171      C1215   1.486       .  S
C1171      N1172   1.359       .  A
C1171      N1176   1.361       .  A
N1172      C1173   1.359       .  A
C1173      C1308   1.488       .  S
C1173      N1174   1.362       .  A
N1174      C1175   1.360       .  A
C1175      N1176   1.359       .  A
C1177      C1178   1.401       .  A
C1177      C1182   1.405       .  A
C1177      H1193   1.084       .  S
C1178      C1179   1.404       .  A
C1178      H1194   1.083       .  S
C1179      C1189   1.407       .  A
C1179      C1180   1.414       .  A
C1180      C1186   1.410       .  A
C1180      C1181   1.411       .  A
C1181      C1183   1.413       .  A
C1181      C1182   1.410       .  A
C1182      C1190   1.403       .  A
C1183      C1192   1.402       .  A
C1183      C1184   1.402       .  A
C1184      C1185   1.397       .  A
C1184      H1195   1.084       .  S
C1185      C1186   1.403       .  A
C1185      H1196   1.084       .  S
C1186      C1187   1.398       .  A
C1187      C1188   1.404       .  A
C1187      H1197   1.085       .  S
C1188      C1189   1.406       .  A
C1189      H1198   1.084       .  S
C1190      C1191   1.410       .  A
C1190      H1199   1.085       .  S
C1191      C1192   1.406       .  A
C1192      H1200   1.085       .  S
C1201      C1202   1.400       .  A
C1201      C1206   1.405       .  A
C1201      H1217   1.085       .  S
C1202      C1203   1.404       .  A
C1202      H1218   1.083       .  S
C1203      C1213   1.407       .  A
C1203      C1204   1.414       .  A
C1204      C1210   1.410       .  A
C1204      C1205   1.412       .  A
C1205      C1207   1.412       .  A
C1205      C1206   1.410       .  A
C1206      C1214   1.404       .  A
C1207      C1216   1.402       .  A
C1207      C1208   1.403       .  A
C1208      C1209   1.397       .  A
C1208      H1219   1.085       .  S
C1209      C1210   1.403       .  A
C1209      H1220   1.084       .  S
C1210      C1211   1.399       .  A
C1211      C1212   1.406       .  A
C1211      H1221   1.085       .  S
C1212      C1213   1.405       .  A
C1213      H1222   1.084       .  S
C1214      C1215   1.410       .  A
C1214      H1223   1.085       .  S
C1215      C1216   1.407       .  A
C1216      H1224   1.085       .  S
C1225      C1226   1.396       .  A
C1225      C1230   1.402       .  A
C1225      H1241   1.084       .  S
C1226      C1227   1.402       .  A
C1226      H1242   1.084       .  S
C1227      C1237   1.397       .  A
C1227      C1228   1.409       .  A
C1228      C1234   1.414       .  A
C1228      C1229   1.412       .  A
C1229      C1231   1.410       .  A
C1229      C1230   1.413       .  A
C1230      C1238   1.400       .  A
C1231      C1240   1.405       .  A
C1231      C1232   1.405       .  A
C1232      C1233   1.402       .  A
C1232      H1243   1.085       .  S
C1233      C1234   1.405       .  A
C1233      H1244   1.083       .  S
C1234      C1235   1.411       .  A
C1235      C1236   1.407       .  A
C1235      H1245   1.083       .  S
C1236      C1237   1.405       .  A
C1237      H1246   1.085       .  S
C1238      C1239   1.405       .  A
C1238      H1247   1.085       .  S
C1239      C1240   1.412       .  A
C1240      H1248   1.085       .  S
C1249      C1250   1.402       .  A
C1249      C1254   1.405       .  A
C1249      H1265   1.082       .  S
C1250      C1251   1.405       .  A
C1250      H1266   1.085       .  S
C1251      C1261   1.407       .  A
C1251      C1252   1.411       .  A
C1252      C1258   1.411       .  A
C1252      C1253   1.413       .  A
C1253      C1255   1.411       .  A
C1253      C1254   1.413       .  A
C1254      C1262   1.408       .  A
C1255      C1264   1.400       .  A
C1255      C1256   1.403       .  A
C1256      C1257   1.396       .  A
C1256      H1267   1.084       .  S
C1257      C1258   1.403       .  A
C1257      H1268   1.085       .  S
C1258      C1259   1.399       .  A
C1259      C1260   1.408       .  A
C1259      H1269   1.085       .  S
C1260      C1261   1.410       .  A
C1261      H1270   1.085       .  S
C1262      C1263   1.406       .  A
C1262      H1271   1.083       .  S
C1263      C1264   1.405       .  A
C1264      H1272   1.085       .  S
C1273      C1274   1.402       .  A
C1273      C1278   1.406       .  A
C1273      H1289   1.085       .  S
C1274      C1275   1.405       .  A
C1274      H1290   1.083       .  S
C1275      C1285   1.411       .  A
C1275      C1276   1.414       .  A
C1276      C1282   1.409       .  A
C1276      C1277   1.414       .  A
C1277      C1279   1.412       .  A
C1277      C1278   1.410       .  A
C1278      C1286   1.407       .  A
C1279      C1288   1.403       .  A
C1279      C1280   1.402       .  A
C1280      C1281   1.397       .  A
C1280      H1291   1.084       .  S
C1281      C1282   1.403       .  A
C1281      H1292   1.084       .  S
C1282      C1283   1.399       .  A
C1283      C1284   1.407       .  A
C1283      H1293   1.085       .  S
C1284      C1285   1.408       .  A
C1285      H1294   1.084       .  S
C1286      C1287   1.412       .  A
C1286      H1295   1.085       .  S
C1287      C1288   1.407       .  A
C1288      H1296   1.084       .  S
C1297      C1298   1.401       .  A
C1297      C1302   1.404       .  A
C1297      H1313   1.083       .  S
C1298      C1299   1.405       .  A
C1298      H1314   1.085       .  S
C1299      C1309   1.406       .  A
C1299      C1300   1.410       .  A
C1300      C1306   1.412       .  A
C1300      C1301   1.413       .  A
C1301      C1303   1.410       .  A
C1301      C1302   1.413       .  A
C1302      C1310   1.408       .  A
C1303      C1312   1.400       .  A
C1303      C1304   1.403       .  A
C1304      C1305   1.397       .  A
C1304      H1315   1.084       .  S
C1305      C1306   1.403       .  A
C1305      H1316   1.084       .  S
C1306      C1307   1.402       .  A
C1307      C1308   1.407       .  A
C1307      H1317   1.084       .  S
C1308      C1309   1.411       .  A
C1309      H1318   1.085       .  S
C1310      C1311   1.407       .  A
C1310      H1319   1.084       .  S
C1311      C1312   1.406       .  A
C1312      H1320   1.085       .  S
C1321      C1322   1.398       .  A
C1321      C1326   1.403       .  A
C1321      H1337   1.084       .  S
C1322      C1323   1.403       .  A
C1322      H1338   1.084       .  S
C1323      C1333   1.401       .  A
C1323      C1324   1.410       .  A
C1324      C1330   1.413       .  A
C1324      C1325   1.414       .  A
C1325      C1327   1.410       .  A
C1325      C1326   1.412       .  A
C1326      C1334   1.403       .  A
C1327      C1336   1.406       .  A
C1327      C1328   1.405       .  A
C1328      C1329   1.401       .  A
C1328      H1339   1.085       .  S
C1329      C1330   1.404       .  A
C1329      H1340   1.083       .  S
C1330      C1331   1.409       .  A
C1331      C1332   1.406       .  A
C1331      H1341   1.084       .  S
C1332      C1333   1.406       .  A
C1333      H1342   1.085       .  S
C1334      C1335   1.407       .  A
C1334      H1343   1.085       .  S
C1335      C1336   1.411       .  A
C1336      H1344   1.085       .  S
C1345      C1346   1.400       .  A
C1345      C1350   1.403       .  A
C1345      H1361   1.082       .  S
C1346      C1347   1.404       .  A
C1346      H1362   1.085       .  S
C1347      C1357   1.404       .  A
C1347      C1348   1.411       .  A
C1348      C1354   1.411       .  A
C1348      C1349   1.411       .  A
C1349      C1351   1.410       .  A
C1349      C1350   1.413       .  A
C1350      C1358   1.406       .  A
C1351      C1360   1.400       .  A
C1351      C1352   1.403       .  A
C1352      C1353   1.397       .  A
C1352      H1363   1.084       .  S
C1353      C1354   1.403       .  A
C1353      H1364   1.085       .  S
C1354      C1355   1.401       .  A
C1355      C1356   1.408       .  A
C1355      H1365   1.085       .  S
C1356      C1357   1.409       .  A
C1357      H1366   1.085       .  S
C1358      C1359   1.404       .  A
C1358      H1367   1.083       .  S
C1359      C1360   1.406       .  A
C1360      H1368   1.085       .  S
C1369      C1370   1.396       .  A
C1369      C1374   1.403       .  A
C1369      H1385   1.084       .  S
C1370      C1371   1.403       .  A
C1370      H1386   1.084       .  S
C1371      C1381   1.400       .  A
C1371      C1372   1.412       .  A
C1372      C1378   1.410       .  A
C1372      C1373   1.411       .  A
C1373      C1375   1.414       .  A
C1373      C1374   1.410       .  A
C1374      C1382   1.397       .  A
C1375      C1384   1.406       .  A
C1375      C1376   1.403       .  A
C1376      C1377   1.400       .  A
C1376      H1387   1.083       .  S
C1377      C1378   1.404       .  A
C1377      H1388   1.084       .  S
C1378      C1379   1.403       .  A
C1379      C1380   1.408       .  A
C1379      H1389   1.084       .  S
C1380      C1381   1.407       .  A
C1381      H1390   1.085       .  S
C1382      C1383   1.406       .  A
C1382      H1391   1.085       .  S
C1383      C1384   1.404       .  A
C1384      H1392   1.084       .  S
C1393      C1394   1.400       .  A
C1393      C1398   1.403       .  A
C1393      H1409   1.083       .  S
C1394      C1395   1.404       .  A
C1394      H1410   1.085       .  S
C1395      C1405   1.405       .  A
C1395      C1396   1.410       .  A
C1396      C1402   1.412       .  A
C1396      C1397   1.413       .  A
C1397      C1399   1.410       .  A
C1397      C1398   1.414       .  A
C1398      C1406   1.408       .  A
C1399      C1408   1.400       .  A
C1399      C1400   1.404       .  A
C1400      C1401   1.398       .  A
C1400      H1411   1.084       .  S
C1401      C1402   1.403       .  A
C1401      H1412   1.085       .  S
C1402      C1403   1.404       .  A
C1403      C1404   1.409       .  A
C1403      H1413   1.086       .  S
C1404      C1405   1.410       .  A
C1405      H1414   1.085       .  S
C1406      C1407   1.405       .  A
C1406      H1415   1.084       .  S
C1407      C1408   1.408       .  A
C1408      H1416   1.085       .  S
C1417      C1418   1.399       .  A
C1417      C1422   1.404       .  A
C1417      H1433   1.084       .  S
C1418      C1419   1.403       .  A
C1418      H1434   1.085       .  S
C1419      C1429   1.404       .  A
C1419      C1420   1.412       .  A
C1420      C1426   1.410       .  A
C1420      C1421   1.413       .  A
C1421      C1423   1.413       .  A
C1421      C1422   1.411       .  A
C1422      C1430   1.402       .  A
C1423      C1432   1.407       .  A
C1423      C1424   1.404       .  A
C1424      C1425   1.400       .  A
C1424      H1435   1.082       .  S
C1425      C1426   1.404       .  A
C1425      H1436   1.085       .  S
C1426      C1427   1.404       .  A
C1427      C1428   1.410       .  A
C1427      H1437   1.085       .  S
C1428      C1429   1.408       .  A
C1429      H1438   1.085       .  S
C1430      C1431   1.406       .  A
C1430      H1439   1.085       .  S
C1431      C1432   1.405       .  A
C1432      H1440   1.084       .  S
C1441      C1442   1.397       .  A
C1441      C1446   1.403       .  A
C1441      H1457   1.085       .  S
C1442      C1443   1.403       .  A
C1442      H1458   1.084       .  S
C1443      C1453   1.396       .  A
C1443      C1444   1.409       .  A
C1444      C1450   1.414       .  A
C1444      C1445   1.410       .  A
C1445      C1447   1.410       .  A
C1445      C1446   1.412       .  A
C1446      C1454   1.401       .  A
C1447      C1456   1.401       .  A
C1447      C1448   1.404       .  A
C1448      C1449   1.399       .  A
C1448      H1459   1.085       .  S
C1449      C1450   1.403       .  A
C1449      H1460   1.083       .  S
C1450      C1451   1.405       .  A
C1451      C1452   1.402       .  A
C1451      H1461   1.084       .  S
C1452      C1453   1.407       .  A
C1453      H1462   1.086       .  S
C1454      C1455   1.408       .  A
C1454      H1463   1.085       .  S
C1455      C1456   1.408       .  A
C1456      H1464   1.085       .  S
