geometry optimzed in LAMMPS
_audit_creation_date              2020-12-01 
_audit_creation_method            'lammps2cif' 
_symmetry_space_group_name_H-M    'P1' 
_symmetry_Int_Tables_number       1 
_symmetry_cell_setting            triclinic 
loop_ 
_symmetry_equiv_pos_as_xyz 
  x,y,z 
_cell_length_a                    53.39401911 
_cell_length_b                    52.714657014959165 
_cell_length_c                    41.53690221759581 
_cell_angle_alpha                 91.81378503354291 
_cell_angle_beta                  90.06518374830684 
_cell_angle_gamma                 125.15574592046352 
loop_ 
_atom_site_label 
_atom_site_type_symbol 
_atom_site_fract_x 
_atom_site_fract_y 
_atom_site_fract_z 
_atom_site_charge 
C1          C  0.00653363  0.48399187  0.11998002     0.02600
C2          C  0.02176363  0.01562331  0.11502793    -0.13500
C3          C  0.00620012  0.02811229  0.10494265     0.00100
C4          C  0.47396173  0.00846876  0.10015921    -0.12100
C5          C  0.45748748  0.47632423  0.10551009     0.02600
C6          C  0.47378574  0.46383384  0.11549310    -0.11500
H7          H  0.04650193  0.03090034  0.11822775     0.08200
H8          H  0.46177932  0.01845347  0.09365780     0.05700
H9          H  0.46153410  0.43915828  0.11893019     0.05600
C10         C  0.13006997  0.35439626  0.08761073     0.02600
C11         C  0.16205724  0.37533509  0.09190282    -0.13500
C12         C  0.17904967  0.36576980  0.10610339     0.00100
C13         C  0.16412154  0.33501281  0.11531058    -0.12100
C14         C  0.13267440  0.31366145  0.10904225     0.02600
C15         C  0.11567747  0.32353835  0.09586754    -0.11500
H16         H  0.17370942  0.39918322  0.08490521     0.08200
H17         H  0.17742544  0.32703025  0.12436170     0.05700
H18         H  0.09121067  0.30697383  0.09161392     0.05600
C19         C  0.35457091  0.31460390  0.48679445     0.02600
C20         C  0.35009293  0.33555408  0.00246865    -0.13500
C21         C  0.33337972  0.32754493  0.03067698     0.00100
C22         C  0.32046449  0.29799490  0.04315382    -0.12100
C23         C  0.32516015  0.27699069  0.02836886     0.02600
C24         C  0.34225045  0.28541685  0.00014964    -0.11500
H25         H  0.36012826  0.35832212  0.49285701     0.08200
H26         H  0.30896163  0.29220973  0.06601374     0.05700
H27         H  0.34671220  0.26945912  0.48927044     0.05600
Zr28       Zr  0.10442162  0.42096614  0.05140783     2.17500
O29         O  0.13727074  0.42647806  0.00743259    -0.51800
O30         O  0.07127898  0.38427327  0.00719545    -0.75000
O31         O  0.12430406  0.39071709  0.06291245    -0.81800
O32         O  0.10713048  0.48699414  0.02919249    -0.83600
O33         O  0.08432125  0.35173737  0.08917888    -0.79200
O34         O  0.14056226  0.47492224  0.03320067    -0.90800
O35         O  0.02236785  0.36410212  0.02103130    -0.76800
O36         O  0.05733231  0.37812157  0.07252249    -0.86300
O37         O  0.06805853  0.43376625  0.04724504    -0.86000
O38         O  0.11512030  0.41666188  0.10738342    -0.72700
O39         O  0.12473005  0.46797416  0.08356698    -0.84900
Zr40       Zr  0.05539710  0.43490736  0.15933853     2.26400
Zr41       Zr  0.06706297  0.37408346  0.12799545     2.06300
Zr42       Zr  0.08730891  0.47904672  0.08265920     2.10000
Zr43       Zr  0.02263345  0.39216775  0.06959977     1.78800
O44         O  0.12984157  0.03050643  0.10147487    -0.93700
O45         O  0.48189429  0.33756652  0.07632083    -0.41500
O46         O  0.04657007  0.43583271  0.10445666    -0.78100
O47         O  0.03148199  0.38790047  0.12471687    -0.96800
O48         O  0.09018604  0.42089816  0.15954189    -0.88500
O49         O  0.10093707  0.47843821  0.13768549    -0.92900
C50         C  0.04216388  0.36528097  0.00221268     1.00800
C51         C  0.13396989  0.49398176  0.02553977     1.13700
C52         C  0.11149035  0.36553898  0.07826426     1.04500
O53         O  0.03711668  0.31773118  0.12962989    -0.95100
O54         O  0.02538526  0.35057562  0.16784165    -0.90800
O55         O  0.01827602  0.38723919  0.18559755    -0.84000
C56         C  0.01076681  0.35929677  0.18429777     1.11200
O57         O  0.18401562  0.49404605  0.10897800    -0.97100
Zr58       Zr  0.13605283  0.46389719  0.13765883     1.88900
O59         O  0.09367645  0.45291041  0.20746263    -0.73700
O60         O  0.09978956  0.37288537  0.16789159    -0.53000
O61         O  0.17668309  0.45751116  0.15044115    -0.97700
O62         O  0.16193998  0.01511441  0.16380517    -0.54900
O63         O  0.13211633  0.44934865  0.19192834    -0.74200
C64         C  0.11783332  0.45299506  0.21384183     0.98100
O65         O  0.53880842  0.45004931  0.20611358    -0.63100
O66         O  0.08202903  0.51637905  0.05589763    -0.57900
O67         O  0.02713756  0.45842453  0.14601487    -0.94500
O68         O  0.04438052  0.48039463  0.09753997    -0.93000
O69         O  0.00601603  0.41298673  0.02991176    -0.93300
O70         O  0.47305877  0.38236595  0.07910067    -0.92100
C71         C  0.02660832  0.47278068  0.12152643     1.16900
H72         H  0.06388681  0.43566491  0.02514138     0.32900
H73         H  0.01059347  0.37201808  0.12969824     0.43700
H74         H  0.10768179  0.49720588  0.15010941     0.37300
H75         H  0.13099157  0.41365568  0.11157032     0.33700
H76         H  0.47106349  0.32994227  0.05510844     0.25500
H77         H  0.08547999  0.35488247  0.18101393     0.31500
H78         H  0.18959723  0.47382968  0.16726010     0.37400
H79         H  0.49226369  0.39378195  0.01398017     0.31800
H80         H  0.10280740  0.53268660  0.04856758     0.30700
H81         H  0.14845129  0.03242908  0.09403511     0.32400
H82         H  0.18194960  0.01998701  0.17121784     0.31400
H83         H  0.47479638  0.39065593  0.10133358     0.35400
H84         H  0.54810501  0.47250511  0.20448465     0.28100
H85         H  0.12926751  0.40502841  0.99986911     0.32300
H86         H  0.18885804  0.51519084  0.10836337     0.35200
H87         H  0.07005923  0.50549357  0.03580067     0.27800
H88         H  0.51645535  0.43959602  0.20322273     0.40700
H89         H  0.01937216  0.31021808  0.11489128     0.30700
H90         H  0.99164110  0.32731759  0.08007643     0.38300
H91         H  0.15073613  0.01199967  0.18391431     0.30200
H92         H  0.11106851  0.36628885  0.15546287     0.30200
H93         H  0.15730446  0.43438117  0.01789110     0.30500
C94         C  0.16887894  0.07239557  0.48991295     0.02600
C95         C  0.19589867  0.09057094  0.50850561    -0.13500
C96         C  0.20407564  0.07774461  0.03153088     0.00100
C97         C  0.18542804  0.04521670  0.03460499    -0.12100
C98         C  0.15789485  0.02639120  0.01613526     0.02600
C99         C  0.14990884  0.04029275  0.49427435    -0.11500
H100        H  0.21054736  0.11528863  0.50472265     0.08200
H101        H  0.19108395  0.03491262  0.05279666     0.05700
H102        H  0.12874623  0.02598778  0.48023088     0.05600
C103        C  0.43248947  0.32443905  0.21984267     0.02600
C104        C  0.41697588  0.29409548  0.20563962    -0.13500
C105        C  0.43228890  0.28405481  0.18723101     0.00100
C106        C  0.46403015  0.30462650  0.18387337    -0.12100
C107        C  0.48024712  0.33531151  0.19704110     0.02600
C108        C  0.46429542  0.34470348  0.21553019    -0.11500
H109        H  0.39224600  0.27864856  0.20698627     0.08200
H110        H  0.47520020  0.29807941  0.16724326     0.05700
H111        H  0.47649162  0.36820163  0.22566887     0.05600
Zr112      Zr  0.37672053  0.18135267  0.12831202     2.17500
O113        O  0.41958577  0.18977061  0.15992001    -0.51800
O114        O  0.40817573  0.17565751  0.08874493    -0.75000
O115        O  0.36097640  0.13333291  0.15519029    -0.81800
O116        O  0.40214991  0.26762470  0.14141307    -0.83600
O117        O  0.31446204  0.09492912  0.13313726    -0.79200
O118        O  0.40865498  0.23206371  0.16166188    -0.90800
O119        O  0.38544316  0.16225071  0.03904151    -0.76800
O120        O  0.34509370  0.14629666  0.08442337    -0.86300
O121        O  0.38297772  0.21202537  0.08377632    -0.86000
O122        O  0.32425030  0.15048991  0.14648639    -0.72700
O123        O  0.35848684  0.21144951  0.14495659    -0.84900
Zr124      Zr  0.28051279  0.17736407  0.07840951     2.26400
Zr125      Zr  0.29306653  0.11620173  0.10136740     2.06300
Zr126      Zr  0.36331806  0.24110654  0.10070456     2.10000
Zr127      Zr  0.35058244  0.17708807  0.04073700     1.78800
O128        O  0.36279421  0.28306417  0.12620190    -0.93700
O129        O  0.32987781  0.13347943  0.00186328    -0.41500
O130        O  0.33137170  0.20641220  0.05771464    -0.78100
O131        O  0.29865657  0.14728115  0.05732625    -0.96800
O132        O  0.27673800  0.14700145  0.12140187    -0.90100
O133        O  0.31225055  0.21307094  0.12107424    -0.92900
C134        C  0.40582418  0.16641867  0.05892959     1.00800
C135        C  0.41392491  0.25953401  0.16174286     1.13700
C136        C  0.33784232  0.10467378  0.15175203     1.04500
O137        O  0.29130917  0.07680869  0.06707919    -0.95100
O138        O  0.24444160  0.08944015  0.06940394    -0.90800
O139        O  0.24174628  0.12821027  0.05186235    -0.84000
C140        C  0.23163736  0.09945450  0.05259977     1.11200
O141        O  0.34283529  0.20349983  0.21133854    -0.97100
Zr142      Zr  0.30814180  0.18214350  0.16441006     1.88900
O143        O  0.23996860  0.16337666  0.11822538    -0.73700
O144        O  0.25160083  0.07849883  0.13512191    -0.53000
O145        O  0.28771821  0.14372990  0.20605350    -0.97700
O146        O  0.30454886  0.22201370  0.19060127    -0.54900
O147        O  0.25452662  0.15735570  0.16697621    -0.74200
C148        C  0.23441149  0.15425645  0.14756839     0.98100
O149        O  0.24076970  0.17636451  0.04792407    -0.63100
O150        O  0.40908878  0.27717929  0.07074231    -0.57900
O151        O  0.29749970  0.22662012  0.05189888    -0.94500
O152        O  0.34842529  0.26236509  0.06200215    -0.93000
O153        O  0.39406990  0.22226236  0.01571408    -0.93300
O154        O  0.33813581  0.18568198  0.98753959    -0.92100
C155        C  0.32310501  0.25341154  0.04838538     1.16900
H156        H  0.40421818  0.22511617  0.07787292     0.32900
H157        H  0.28770395  0.13475672  0.03821484     0.43700
H158        H  0.30622530  0.22669944  0.12682355     0.37300
H159        H  0.32137875  0.13920817  0.16551699     0.33700
H160        H  0.34708755  0.13916092  0.98758422     0.25500
H161        H  0.24986835  0.05895543  0.13080076     0.31500
H162        H  0.27658711  0.14906450  0.22060951     0.37400
H163        H  0.40324175  0.21389040  0.00226585     0.31800
H164        H  0.41153210  0.29725180  0.07300445     0.30700
H165        H  0.38113307  0.30234469  0.11812877     0.32400
H166        H  0.29748263  0.21468166  0.21257904     0.31400
H167        H  0.32356825  0.19127053  0.99153542     0.35400
H168        H  0.24001408  0.19343068  0.05725828     0.28100
H169        H  0.42202349  0.17335915  0.15219215     0.32300
H170        H  0.32971925  0.19786171  0.23035797     0.35200
H171        H  0.42633922  0.28036152  0.08365922     0.27800
H172        H  0.24842509  0.18248179  0.02583004     0.40700
H173        H  0.31206948  0.08146333  0.06902148     0.30700
H174        H  0.32684031  0.11631008  0.01445317     0.38300
H175        H  0.28679356  0.21991405  0.17999960     0.30200
H176        H  0.26002729  0.08508961  0.15743079     0.30200
H177        H  0.41187455  0.18404692  0.18205402     0.30500
Zr178      Zr  0.35485987  0.42772686  0.05780974     2.17500
O179        O  0.38908794  0.44108569  0.01273680    -0.51800
O180        O  0.34663264  0.37873437  0.03997410    -0.75000
O181        O  0.40899954  0.45354094  0.07743743    -0.81800
O182        O  0.29033454  0.40723679  0.00607734    -0.83600
O183        O  0.41015363  0.45124419  0.13208300    -0.79200
O184        O  0.34039950  0.44466262  0.00965465    -0.90800
O185        O  0.31099222  0.33958469  0.07058139    -0.76800
O186        O  0.34565750  0.40037380  0.10627724    -0.86300
O187        O  0.30128064  0.38608932  0.05873198    -0.86000
O188        O  0.37020393  0.46525043  0.10183098    -0.72700
O189        O  0.32742702  0.45119543  0.05719631    -0.84900
Zr190      Zr  0.28142965  0.42138901  0.15091084     2.26400
Zr191      Zr  0.36036093  0.43721533  0.15030266     2.06300
Zr192      Zr  0.27414805  0.40961961  0.05923809     2.10000
Zr193      Zr  0.29216435  0.35988153  0.10723735     1.78800
O194        O  0.26563450  0.44337668  0.02984196    -0.93700
O195        O  0.30974546  0.33555767  0.14056485    -0.41500
O196        O  0.26479106  0.38294178  0.10799956    -0.78100
O197        O  0.30690221  0.39555567  0.15131213    -0.96800
O198        O  0.33473400  0.46229824  0.14967781    -0.90100
O199        O  0.28833535  0.44701676  0.10191027    -0.92900
C200        C  0.33028067  0.35021659  0.04809271     1.00800
C201        C  0.31403416  0.43127451  0.99495780     1.13700
C202        C  0.42323061  0.45815736  0.10467718     1.04500
O203        O  0.37932199  0.41166094  0.17893781    -0.95100
O204        O  0.34088015  0.42580730  0.20537061    -0.90800
O205        O  0.29157141  0.41101332  0.20397862    -0.84000
C206        C  0.31486269  0.41502682  0.21860379     1.11200
O207        O  0.38722984  0.02901992  0.07353779    -0.97100
Zr208      Zr  0.34194040  0.48770015  0.10058002     1.88900
O209        O  0.29750718  0.47263660  0.17160458    -0.73700
O210        O  0.39542202  0.48682644  0.17906875    -0.53000
O211        O  0.37731668  0.02835011  0.14027629    -0.97700
O212        O  0.33166610  0.01364161  0.06046736    -0.54900
O213        O  0.31044584  0.49994502  0.12710467    -0.74200
C214        C  0.30628067  0.49746101  0.15719557     0.98100
O215        O  0.24550841  0.41194518  0.19313769    -0.63100
O216        O  0.23112867  0.36323665  0.03148443    -0.57900
O217        O  0.22754912  0.39121561  0.13259032    -0.94500
O218        O  0.22474965  0.39369658  0.07826268    -0.93000
O219        O  0.24585671  0.31917250  0.07767748    -0.93300
O220        O  0.25327534  0.31964301  0.14126434    -0.92100
C221        C  0.21262099  0.38554626  0.10590594     1.16900
H222        H  0.29475447  0.37185860  0.04029417     0.32900
H223        H  0.30198124  0.38221537  0.16906810     0.43700
H224        H  0.27475711  0.45349615  0.10025768     0.37300
H225        H  0.39146530  0.48255324  0.10108999     0.33700
H226        H  0.30177115  0.31527225  0.12947614     0.25500
H227        H  0.40690975  0.48276553  0.19428479     0.31500
H228        H  0.37319801  0.04438406  0.13931582     0.37400
H229        H  0.24850772  0.30223839  0.07367886     0.31800
H230        H  0.22844676  0.37063064  0.01102265     0.30700
H231        H  0.24761037  0.42908015  0.01557880     0.32400
H232        H  0.33588462  0.03261527  0.07173849     0.31400
H233        H  0.24579116  0.33000668  0.15420255     0.35400
H234        H  0.23438672  0.42063447  0.18565741     0.28100
H235        H  0.40044746  0.43190282  0.01724082     0.32300
H236        H  0.39100904  0.04880945  0.08176771     0.35200
H237        H  0.23896684  0.35082568  0.02501119     0.27800
H238        H  0.23000242  0.38918223  0.19308168     0.40700
H239        H  0.36090687  0.39044068  0.18222432     0.30700
H240        H  0.33215522  0.34787117  0.13754029     0.38300
H241        H  0.30958485  0.50123382  0.05771687     0.30200
H242        H  0.41064150  0.50028217  0.16292963     0.30200
H243        H  0.40458189  0.46380542  0.01526442     0.30500
C244        C  0.33652921  0.08066314  0.17083750     0.02600
C245        C  0.31786394  0.04990251  0.15911783    -0.13500
C246        C  0.31583613  0.02604990  0.17539142     0.00100
C247        C  0.33074387  0.03240696  0.20531428    -0.12100
C248        C  0.34934251  0.06296945  0.21807466     0.02600
C249        C  0.35241801  0.08724712  0.20039866    -0.11500
H250        H  0.30633693  0.04460489  0.13582043     0.08200
H251        H  0.32960946  0.01391245  0.21750646     0.05700
H252        H  0.36672783  0.11106639  0.20969540     0.05600
C253        C  0.16739569  0.11086552  0.20450076     0.02600
C254        C  0.19615791  0.12383456  0.19031497    -0.13500
C255        C  0.20310907  0.13842898  0.16050422     0.00100
C256        C  0.18057341  0.13896810  0.14446214    -0.12100
C257        C  0.15204390  0.12671132  0.15857886     0.02600
C258        C  0.14531358  0.11210032  0.18809821    -0.11500
H259        H  0.21365795  0.12353931  0.20311339     0.08200
H260        H  0.18606250  0.15086185  0.12201737     0.05700
H261        H  0.12352082  0.10332617  0.19916821     0.05600
Zr262      Zr  0.06685329  0.13156683  0.14960822     2.17500
O263        O  0.04917886  0.09556705  0.19344785    -0.51800
O264        O  0.11051775  0.13091742  0.16259326    -0.75000
O265        O  0.03538235  0.07763559  0.12995695    -0.81800
O266        O  0.09428489  0.19679025  0.20729088    -0.83600
O267        O  0.02642595  0.07414458  0.07578823    -0.79200
O268        O  0.05437798  0.14688521  0.20001997    -0.90800
O269        O  0.13741399  0.14482072  0.11699501    -0.76800
O270        O  0.08898364  0.13517674  0.09857874    -0.86300
O271        O  0.11407805  0.18241060  0.14990507    -0.86000
O272        O  0.02966284  0.12245105  0.10948535    -0.72700
O273        O  0.05359537  0.16751457  0.15581868    -0.84900
Zr274      Zr  0.08353806  0.21233471  0.06455206     2.26400
Zr275      Zr  0.05301373  0.12762410  0.05811076     2.06300
Zr276      Zr  0.10041068  0.21821431  0.15472451     2.10000
Zr277      Zr  0.13528441  0.18610139  0.09874385     1.78800
O278        O  0.07813429  0.23877970  0.18831093    -0.93700
O279        O  0.15547031  0.17294239  0.05362759    -0.41500
O280        O  0.12220375  0.22246210  0.10327082    -0.78100
O281        O  0.10013500  0.17870895  0.05857733    -0.96800
O282        O  0.03727115  0.16146347  0.06535556    -0.90100
O283        O  0.06284406  0.20973195  0.11626686    -0.92900
C284        C  0.13167658  0.13392379  0.14504792     1.00800
C285        C  0.06927402  0.17262015  0.21680236     1.13700
C286        C  0.02358338  0.06210337  0.10322320     1.04500
O287        O  0.07006371  0.10049919  0.02701630    -0.95100
O288        O  0.06826469  0.14983436  0.00399995    -0.90800
O289        O  0.08698161  0.20106186  0.00867157    -0.84000
C290        C  0.08087337  0.17703523  0.99227165     1.11200
O291        O  0.47687245  0.11833310  0.15086658    -0.97100
Zr292      Zr  0.01666508  0.15865295  0.11722983     1.88900
O293        O  0.03497292  0.20058970  0.04471190    -0.73700
O294        O  0.00451317  0.10130732  0.02822441    -0.53000
O295        O  0.46949846  0.12411171  0.08590861    -0.97700
O296        O  0.49964351  0.17693723  0.16107547    -0.54900
O297        O  0.01242330  0.19574852  0.09116336    -0.74200
C298        C  0.01182556  0.19454025  0.06072202     0.98100
O299        O  0.11255370  0.25345286  0.02632462    -0.63100
O300        O  0.15089552  0.25365476  0.18016055    -0.57900
O301        O  0.10292394  0.26379289  0.08579141    -0.94500
O302        O  0.12301940  0.27020063  0.13616215    -0.93000
O303        O  0.17922319  0.21479707  0.13595756    -0.93300
O304        O  0.17962036  0.22981073  0.07309276    -0.92100
C305        C  0.11851031  0.28042173  0.11078368     1.16900
H306        H  0.12778991  0.18590708  0.16739954     0.32900
H307        H  0.11190205  0.18253631  0.03952974     0.43700
H308        H  0.05929047  0.22556648  0.12016243     0.37300
H309        H  0.01051939  0.10232383  0.11109199     0.33700
H310        H  0.17120041  0.17098218  0.06334681     0.25500
H311        H  0.00369456  0.08479915  0.01515056     0.31500
H312        H  0.45454601  0.12734287  0.09557302     0.37400
H313        H  0.19172394  0.20690275  0.13070981     0.31800
H314        H  0.15484011  0.24027153  0.19206716     0.30700
H315        H  0.09591534  0.25886602  0.19734166     0.32400
H316        H  0.50888758  0.19898894  0.15675292     0.31400
H317        H  0.17112291  0.23865399  0.05993951     0.35400
H318        H  0.10255084  0.26444373  0.02516801     0.28100
H319        H  0.05625726  0.08218962  0.18846532     0.32300
H320        H  0.48822763  0.11693525  0.16878857     0.35200
H321        H  0.16531238  0.26111927  0.16210757     0.27800
H322        H  0.13294916  0.26861979  0.03657424     0.40700
H323        H  0.08310304  0.09856676  0.04225286     0.30700
H324        H  0.13855997  0.15144455  0.04682152     0.38300
H325        H  0.01022598  0.17747736  0.18009406     0.30200
H326        H  0.98873425  0.09004923  0.04467964     0.30200
H327        H  0.52718914  0.08267279  0.19213841     0.30500
C328        C  0.42872516  0.16148699  0.04583463     0.02600
C329        C  0.45830071  0.17886112  0.05928684    -0.13500
C330        C  0.48160962  0.17826720  0.04482788     0.00100
C331        C  0.47514574  0.15880533  0.01762310    -0.12100
C332        C  0.44584896  0.14046553  0.50392378     0.02600
C333        C  0.42254903  0.14237551  0.01782415    -0.11500
H334        H  0.46355004  0.19373406  0.08055046     0.08200
H335        H  0.49363704  0.15911895  0.50608296     0.05700
H336        H  0.40037939  0.13017319  0.50570514     0.05600
C337        C  0.47795257  0.02933232  0.37386980     0.02600
C338        C  0.45681188  0.49692122  0.36884460    -0.13500
C339        C  0.46658862  0.47851816  0.35670040     0.00100
C340        C  0.99796470  0.99318363  0.35090875    -0.12100
C341        C  0.01912632  0.02515294  0.35747246     0.02600
C342        C  0.00909822  0.04299694  0.36878222    -0.11500
H343        H  0.43268322  0.48623612  0.37272439     0.08200
H344        H  0.00597649  0.47941074  0.34208176     0.05700
H345        H  0.02558717  0.06790479  0.37251836     0.05600
Zr346      Zr  0.12111125  0.08327037  0.39921706     2.17500
O347        O  0.08151969  0.06376083  0.43974030    -0.51800
O348        O  0.11948813  0.12776320  0.41490154    -0.75000
O349        O  0.13583906  0.07275363  0.45074325    -0.81800
O350        O  0.06355003  0.04677930  0.32624110    -0.83600
O351        O  0.18583777  0.11028346  0.45054197    -0.79200
O352        O  0.06785262  0.05000815  0.38108809    -0.90800
O353        O  0.15148091  0.16833541  0.38378828    -0.76800
O354        O  0.17300445  0.12801044  0.39923236    -0.86300
O355        O  0.12648541  0.11008320  0.35136218    -0.86000
O356        O  0.15102465  0.06180607  0.39770624    -0.72700
O357        O  0.10827445  0.04778720  0.35373955    -0.84900
Zr358      Zr  0.19840612  0.10036950  0.30652660     2.26400
Zr359      Zr  0.20278837  0.10711257  0.39765905     2.06300
Zr360      Zr  0.11550538  0.07573364  0.30595137     2.10000
Zr361      Zr  0.17841358  0.15411103  0.35101968     1.78800
O362        O  0.08208791  0.03190271  0.26877373    -0.93700
O363        O  0.21821775  0.19943662  0.38307274    -0.41500
O364        O  0.16763289  0.11999803  0.30605564    -0.78100
O365        O  0.21022817  0.13608143  0.35092491    -0.96800
O366        O  0.19173755  0.07205002  0.35334659    -0.90100
O367        O  0.14590659  0.05595465  0.30418331    -0.92900
C368        C  0.13124236  0.15542357  0.40531233     1.00800
C369        C  0.05221636  0.04093717  0.35452760     1.13700
C370        C  0.16288758  0.08651029  0.46322096     1.04500
O371        O  0.24485465  0.14434445  0.43418449    -0.95100
O372        O  0.25380025  0.13264757  0.37695329    -0.90800
O373        O  0.24802387  0.11458815  0.32506913    -0.84000
C374        C  0.26423821  0.12998140  0.35030388     1.11200
O375        O  0.11309095  0.49452844  0.39588336    -0.97100
Zr376      Zr  0.13932585  0.02862797  0.35137385     1.88900
O377        O  0.19305826  0.05555203  0.28152711    -0.73700
O378        O  0.21041926  0.06986080  0.42008463    -0.53000
O379        O  0.13219743  0.97868038  0.35384793    -0.97700
O380        O  0.09789706  0.49361355  0.31269959    -0.54900
O381        O  0.18369441  0.03415410  0.32867659    -0.74200
C382        C  0.18523879  0.03237680  0.29826455     0.98100
O383        O  0.24151478  0.14123260  0.27609101    -0.63100
O384        O  0.09557569  0.10414618  0.28633272    -0.57900
O385        O  0.18499979  0.10258942  0.25211971    -0.94500
O386        O  0.13718214  0.09177692  0.25201580    -0.93000
O387        O  0.15782186  0.17276067  0.31353755    -0.93300
O388        O  0.21826002  0.19576663  0.31892997    -0.92100
C389        C  0.16246053  0.10042710  0.23814868     1.16900
H390        H  0.11243105  0.11602927  0.35103411     0.32900
H391        H  0.23099224  0.15431475  0.34960861     0.43700
H392        H  0.14092072  0.04332247  0.28467056     0.37300
H393        H  0.14869192  0.04915198  0.41525071     0.33700
H394        H  0.21258661  0.21433496  0.38246052     0.25500
H395        H  0.22691566  0.07169238  0.40714496     0.31500
H396        H  0.12670896  0.46805835  0.33852467     0.37400
H397        H  0.16432268  0.19331933  0.32272214     0.31800
H398        H  0.08616118  0.09425957  0.26496196     0.30700
H399        H  0.07126930  0.03851493  0.25598221     0.32400
H400        H  0.08198929  0.47647754  0.32576033     0.31400
H401        H  0.22046940  0.18498728  0.30037798     0.35400
H402        H  0.23388740  0.15186309  0.26476830     0.28100
H403        H  0.09124992  0.07825243  0.45875330     0.32300
H404        H  0.09430550  0.49393736  0.39822381     0.35200
H405        H  0.07800164  0.09821507  0.30010367     0.27800
H406        H  0.25622066  0.15717118  0.29232606     0.40700
H407        H  0.24631720  0.16382679  0.43218787     0.30700
H408        H  0.21459623  0.19260488  0.40554901     0.38300
H409        H  0.10315634  0.98821373  0.29749344     0.30200
H410        H  0.22010208  0.07900885  0.44156335     0.30200
H411        H  0.07759751  0.04397176  0.44662743     0.30500
C412        C  0.09302500  0.18270873  0.45922762     0.02600
C413        C  0.10137287  0.20997213  0.44372123    -0.13500
C414        C  0.11994606  0.21991460  0.41639276     0.00100
C415        C  0.12965270  0.20188194  0.40445771    -0.12100
C416        C  0.12070960  0.17399174  0.41890746     0.02600
C417        C  0.10219285  0.16448223  0.44606106    -0.11500
H418        H  0.09439398  0.22417553  0.45373479     0.08200
H419        H  0.14365623  0.20932512  0.38325873     0.05700
H420        H  0.09647566  0.14387679  0.45805769     0.05600
C421        C  0.05454988  0.17654361  0.24470773     0.02600
C422        C  0.07091702  0.20428571  0.26347425    -0.13500
C423        C  0.05564291  0.21295185  0.28351243     0.00100
C424        C  0.02400148  0.19375321  0.28509191    -0.12100
C425        C  0.00751150  0.16525241  0.26774265     0.02600
C426        C  0.02272383  0.15631674  0.24811285    -0.11500
H427        H  0.09553432  0.22014770  0.26112254     0.08200
H428        H  0.01238163  0.20105337  0.29990576     0.05700
H429        H  0.50953836  0.13444824  0.23441263     0.05600
Zr430      Zr  0.41184996  0.12544232  0.30700113     2.17500
O431        O  0.41584133  0.16622881  0.27606546    -0.51800
O432        O  0.38216287  0.09799689  0.25936512    -0.75000
O433        O  0.45890186  0.15458720  0.27783365    -0.81800
O434        O  0.34141776  0.10373961  0.34366753    -0.83600
O435        O  0.46393943  0.11608104  0.27978890    -0.79200
O436        O  0.38348905  0.14578220  0.32332300    -0.90800
O437        O  0.36258228  0.04727764  0.26525932    -0.76800
O438        O  0.42415408  0.08852516  0.30025399    -0.86300
O439        O  0.36719719  0.07679411  0.32293857    -0.86000
O440        O  0.45736596  0.14538045  0.33992848    -0.72700
O441        O  0.40355483  0.13304273  0.36206457    -0.84900
Zr442      Zr  0.42078293  0.07091035  0.40828746     2.26400
Zr443      Zr  0.46798879  0.10678872  0.33524921     2.06300
Zr444      Zr  0.36143655  0.08337270  0.37894572     2.10000
Zr445      Zr  0.38040765  0.04140237  0.31768577     1.78800
O446        O  0.35515595  0.11117804  0.42259444    -0.93700
O447        O  0.40135346  0.02269836  0.27906510    -0.41500
O448        O  0.37981896  0.05384412  0.37186388    -0.78100
O449        O  0.42378042  0.05864502  0.35223699    -0.96800
O450        O  0.46395455  0.11854226  0.39057248    -0.90100
O451        O  0.40528546  0.10514521  0.41265275    -0.92900
C452        C  0.36583390  0.06967780  0.24942701     1.00800
C453        C  0.35607330  0.13121273  0.33322720     1.13700
C454        C  0.47468715  0.14380728  0.27298145     1.04500
O455        O  0.50445838  0.10297028  0.30413914    -0.95100
O456        O  0.47804232  0.07027282  0.35391115    -0.90800
O457        O  0.44965553  0.04762736  0.39806950    -0.84000
C458        C  0.46841211  0.05073947  0.37635440     1.11200
O459        O  0.47570501  0.20553430  0.37366382    -0.97100
Zr460      Zr  0.44857645  0.15332941  0.39419028     1.88900
O461        O  0.43662247  0.10349304  0.46039301    -0.73700
O462        O  0.01915345  0.15265499  0.35064134    -0.53000
O463        O  0.50124895  0.18055849  0.41410515    -0.97700
O464        O  0.43024620  0.18379530  0.41424347    -0.54900
O465        O  0.44758073  0.15105031  0.45079334    -0.74200
C466        C  0.44321055  0.13054472  0.46976167     0.98100
O467        O  0.42708915  0.04696044  0.45431579    -0.63100
O468        O  0.30567744  0.05223737  0.38210171    -0.57900
O469        O  0.37331923  0.03017032  0.42872390    -0.94500
O470        O  0.33730208  0.03626724  0.40971232    -0.93000
O471        O  0.32522255  0.00306808  0.32020603    -0.93300
O472        O  0.36420127  0.48833128  0.32480166    -0.92100
C473        C  0.34578279  0.02152775  0.42524024     1.16900
H474        H  0.34879914  0.06986402  0.31065864     0.32900
H475        H  0.42401813  0.04066679  0.34880646     0.43700
H476        H  0.39789745  0.10581642  0.43357716     0.37300
H477        H  0.47452404  0.16526667  0.33317343     0.33700
H478        H  0.40542998  0.03472132  0.25954467     0.25500
H479        H  0.03112516  0.15880401  0.33071171     0.31500
H480        H  0.50321385  0.19467477  0.43180535     0.37400
H481        H  0.31946625  0.00786356  0.34099132     0.31800
H482        H  0.30062056  0.06729800  0.38700376     0.30700
H483        H  0.35069628  0.12462993  0.41165126     0.32400
H484        H  0.44383258  0.19634665  0.43294670     0.31400
H485        H  0.36554180  0.48672768  0.34833829     0.35400
H486        H  0.41933202  0.52565830  0.44816922     0.28100
H487        H  0.41935205  0.16253704  0.25352326     0.32300
H488        H  0.48527838  0.21991704  0.39276597     0.35200
H489        H  0.29796283  0.04453641  0.35973312     0.27800
H490        H  0.44944864  0.05781280  0.45787115     0.40700
H491        H  0.49179341  0.08624290  0.28759863     0.30700
H492        H  0.42193462  0.03044406  0.28784943     0.38300
H493        H  0.41024068  0.16848280  0.42382459     0.30200
H494        H  0.01689815  0.16969509  0.35570029     0.30200
H495        H  0.43524857  0.18580582  0.28347560     0.30500
C496        C  0.03702083  0.31851088  0.42520636     0.02600
C497        C  0.04844675  0.33685476  0.45444173    -0.13500
C498        C  0.03041989  0.34394938  0.47236058     0.00100
C499        C  0.50091556  0.33241791  0.46003591    -0.12100
C500        C  0.49057357  0.31635975  0.43004893     0.02600
C501        C  0.00794974  0.30830809  0.41364402    -0.11500
H502        H  0.07185633  0.34687525  0.46223192     0.08200
H503        H  0.48758124  0.33949123  0.47169419     0.05700
H504        H  0.00070650  0.29784190  0.38950407     0.05600
Zr505      Zr  0.20141542  0.39546531  0.33679688     2.17500
O506        O  0.24329680  0.43935824  0.30853623    -0.51800
O507        O  0.23946734  0.42739012  0.38120843    -0.75000
O508        O  0.18674278  0.42902286  0.31146620    -0.81800
O509        O  0.23163623  0.34374458  0.32957798    -0.83600
O510        O  0.13637597  0.40875254  0.31952974    -0.79200
O511        O  0.23765810  0.38703658  0.31061204    -0.90800
O512        O  0.22148907  0.40347608  0.42871517    -0.76800
O513        O  0.16935501  0.39315043  0.37826917    -0.86300
O514        O  0.20146967  0.36429506  0.37773011    -0.86000
O515        O  0.15126621  0.36844150  0.31199270    -0.72700
O516        O  0.18259968  0.34451849  0.31391601    -0.84900
Zr517      Zr  0.09838186  0.28748561  0.37283200     2.26400
Zr518      Zr  0.11899751  0.36636598  0.35362454     2.06300
Zr519      Zr  0.18158283  0.31369540  0.35610873     2.10000
Zr520      Zr  0.16966013  0.36217976  0.41906344     1.78800
O521        O  0.18316700  0.27789172  0.31910156    -0.93700
O522        O  0.16739136  0.40141307  0.44882334    -0.41500
O523        O  0.14865096  0.31120473  0.39707112    -0.78100
O524        O  0.12009542  0.33819380  0.39688529    -0.96800
O525        O  0.09802887  0.31582984  0.32961237    -0.90100
O526        O  0.13177266  0.28901410  0.33299996    -0.92900
C527        C  0.24271793  0.42401224  0.41137178     1.00800
C528        C  0.24624615  0.36870402  0.31330975     1.13700
C529        C  0.16207964  0.42837548  0.30705201     1.04500
O530        O  0.12345202  0.40955237  0.38303519    -0.95100
O531        O  0.07508387  0.34487104  0.38742916    -0.90800
O532        O  0.06154144  0.29664281  0.39910991    -0.84000
C533        C  0.05858336  0.31939816  0.40202269     1.11200
O534        O  0.15355018  0.34592560  0.24063545    -0.97100
Zr535      Zr  0.13245405  0.31852931  0.29047529     1.88900
O536        O  0.06907799  0.24731506  0.32937255    -0.73700
O537        O  0.07503007  0.35346510  0.32077255    -0.53000
O538        O  0.09387253  0.31898781  0.25961141    -0.97700
O539        O  0.15409228  0.29760048  0.25619499    -0.54900
O540        O  0.09339314  0.26514553  0.28191158    -0.74200
C541        C  0.07321081  0.24375378  0.29940129     0.98100
O542        O  0.05599667  0.24232039  0.39880897    -0.63100
O543        O  0.21702399  0.31583339  0.39502447    -0.57900
O544        O  0.10902960  0.25568433  0.40240441    -0.94500
O545        O  0.15274570  0.26344262  0.38311469    -0.93000
O546        O  0.18986976  0.34257699  0.45570008    -0.93300
O547        O  0.14114943  0.34296276  0.46862690    -0.92100
C548        C  0.12797985  0.24824784  0.39963040     1.16900
H549        H  0.22191016  0.37194803  0.38496470     0.32900
H550        H  0.11040249  0.33869704  0.41614444     0.43700
H551        H  0.12577958  0.26854085  0.32614255     0.37300
H552        H  0.15072643  0.37757705  0.29254915     0.33700
H553        H  0.17897885  0.40543769  0.46920543     0.25500
H554        H  0.07295459  0.37071909  0.32534149     0.31500
H555        H  0.08491379  0.30100174  0.24411562     0.37400
H556        H  0.20785168  0.34570554  0.44473619     0.31800
H557        H  0.22176465  0.30157643  0.38568708     0.30700
H558        H  0.19779199  0.27461185  0.32934757     0.32400
H559        H  0.13846750  0.28505688  0.23894874     0.31400
H560        H  0.12497707  0.32072751  0.46365534     0.35400
H561        H  0.05558634  0.24941192  0.42104858     0.28100
H562        H  0.24604431  0.45806434  0.31874532     0.32300
H563        H  0.13960555  0.33144839  0.22302646     0.35200
H564        H  0.23635313  0.33675915  0.39344997     0.27800
H565        H  0.03745082  0.23812139  0.38785021     0.40700
H566        H  0.12323809  0.40508928  0.40605016     0.30700
H567        H  0.18048422  0.42068262  0.43690986     0.38300
H568        H  0.15373280  0.28207344  0.26934770     0.30200
H569        H  0.08211950  0.35629557  0.29831363     0.30200
H570        H  0.23521978  0.43765525  0.28650340     0.30500
Zr571      Zr  0.41108309  0.37590838  0.30277032     2.17500
O572        O  0.42699705  0.41401028  0.26148832    -0.51800
O573        O  0.36518597  0.37555119  0.28943578    -0.75000
O574        O  0.42719827  0.36122184  0.25220625    -0.81800
O575        O  0.43215632  0.42992134  0.37946622    -0.83600
O576        O  0.39078200  0.31116278  0.25299585    -0.79200
O577        O  0.44328349  0.42997982  0.32643097    -0.90800
O578        O  0.32406340  0.33950007  0.31774761    -0.76800
O579        O  0.37121814  0.32126055  0.29950919    -0.86300
O580        O  0.37924575  0.36488784  0.34850111    -0.86000
O581        O  0.43656962  0.34967451  0.30688336    -0.72700
O582        O  0.44183554  0.38963114  0.35141983    -0.84900
Zr583      Zr  0.39530917  0.29725395  0.39439011     2.26400
Zr584      Zr  0.39597047  0.29500622  0.30408075     2.06300
Zr585      Zr  0.40928664  0.37719226  0.39659202     2.10000
Zr586      Zr  0.33940361  0.31070253  0.34443768     1.78800
O587        O  0.45107861  0.41019641  0.43528966    -0.93700
O588        O  0.30432862  0.27456585  0.30176226    -0.41500
O589        O  0.37007647  0.32294581  0.39181877    -0.78100
O590        O  0.36209896  0.28288481  0.34769728    -0.96800
O591        O  0.42833113  0.30901353  0.35056371    -0.90100
O592        O  0.43442505  0.35172615  0.40011791    -0.92900
C593        C  0.33722143  0.36214742  0.29887636     1.00800
C594        C  0.44539271  0.44399417  0.35362836     1.13700
C595        C  0.41540636  0.33318273  0.24117194     1.04500
O596        O  0.36540064  0.25278307  0.26442635    -0.95100
O597        O  0.37327844  0.24267143  0.32022354    -0.90800
O598        O  0.37077485  0.24377037  0.37475973    -0.84000
C599        C  0.36556499  0.22962164  0.34730749     1.11200
O600        O  0.00605679  0.40876100  0.32590505    -0.97100
Zr601      Zr  0.46650812  0.36377035  0.35498882     1.88900
O602        O  0.44083418  0.30356266  0.41775726    -0.73700
O603        O  0.43742114  0.29176656  0.28556940    -0.53000
O604        O  0.49722529  0.35155921  0.32386793    -0.97700
O605        O  0.50378836  0.40593270  0.39215205    -0.54900
O606        O  0.48199890  0.33956599  0.38952931    -0.74200
C607        C  0.46938195  0.31939005  0.41111954     0.98100
O608        O  0.37816262  0.26049695  0.43752600    -0.63100
O609        O  0.37943701  0.39492745  0.41903698    -0.57900
O610        O  0.37348331  0.30224065  0.44261740    -0.94500
O611        O  0.38381179  0.35045087  0.44589784    -0.93000
O612        O  0.31037884  0.31858762  0.38369673    -0.93300
O613        O  0.29573864  0.26335179  0.36632081    -0.92100
C614        C  0.37213339  0.32324556  0.45684698     1.16900
H615        H  0.37167991  0.37766165  0.34973630     0.32900
H616        H  0.34457614  0.26152442  0.34685484     0.43700
H617        H  0.44539609  0.35683921  0.42046176     0.37300
H618        H  0.45192563  0.35494357  0.29109557     0.33700
H619        H  0.28534758  0.27350422  0.30471990     0.25500
H620        H  0.42827181  0.27602218  0.26756354     0.31500
H621        H  0.51616044  0.36019115  0.33702219     0.37400
H622        H  0.29299480  0.31567113  0.37127575     0.31800
H623        H  0.39336313  0.41147820  0.43522365     0.30700
H624        H  0.44224814  0.40211508  0.45658864     0.32400
H625        H  0.02198405  0.40631470  0.39203867     0.31400
H626        H  0.30436751  0.25910810  0.38480725     0.35400
H627        H  0.35619012  0.24405969  0.43294117     0.28100
H628        H  0.41445781  0.40198003  0.24203244     0.32300
H629        H  0.02585223  0.41261762  0.33243027     0.35200
H630        H  0.37721736  0.40594675  0.40162859     0.27800
H631        H  0.38860708  0.25004846  0.43437039     0.40700
H632        H  0.34461842  0.24811440  0.26572740     0.30700
H633        H  0.31278093  0.28565280  0.28152282     0.38300
H634        H  0.49706841  0.39805110  0.41401595     0.30200
H635        H  0.45228867  0.31158867  0.27532761     0.30200
H636        H  0.44813152  0.42113550  0.25618735     0.30500
C637        C  0.30979561  0.40252063  0.25119796     0.02600
C638        C  0.32758336  0.39256745  0.26207809    -0.13500
C639        C  0.31886308  0.37386367  0.28872845     0.00100
C640        C  0.29211010  0.36589575  0.30542536    -0.12100
C641        C  0.27460823  0.37687680  0.29588750     0.02600
C642        C  0.28396947  0.39536094  0.26871414    -0.11500
H643        H  0.34717195  0.39761731  0.24847490     0.08200
H644        H  0.28510697  0.35148675  0.32615196     0.05700
H645        H  0.27022306  0.40299181  0.26019361     0.05600
C646        C  0.30916931  0.44573167  0.46727683     0.02600
C647        C  0.33012926  0.47697619  0.46011440    -0.13500
C648        C  0.32257697  0.49076223  0.43682544     0.00100
C649        C  0.29406906  0.47343424  0.42077364    -0.12100
C650        C  0.27304845  0.44256438  0.42751727     0.02600
C651        C  0.28070163  0.42874834  0.45051550    -0.11500
H652        H  0.35212834  0.99061073  0.47257615     0.08200
H653        H  0.28839882  0.48370564  0.40249280     0.05700
H654        H  0.26408009  0.40455151  0.45565958     0.05600
C655        C  0.16152331  0.45069305  0.28638494     0.02600
C656        C  0.13911237  0.44014260  0.26099667    -0.13500
C657        C  0.13343005  0.46057471  0.24637823     0.00100
C658        C  0.15088861  0.49162257  0.25759756    -0.12100
C659        C  0.17251893  0.00196260  0.28267744     0.02600
C660        C  0.17816127  0.48176807  0.29677228    -0.11500
H661        H  0.12623004  0.41606659  0.25252015     0.08200
H662        H  0.14743572  0.00778028  0.24630434     0.05700
H663        H  0.19381962  0.48971333  0.31734102     0.05600
C664        C  0.34174843  0.14772341  0.33550760     0.02600
C665        C  0.31013805  0.13118666  0.33954259    -0.13500
C666        C  0.29720768  0.14696600  0.34787337     0.00100
C667        C  0.31571401  0.17932797  0.35205683    -0.12100
C668        C  0.34709464  0.19594166  0.34637767     0.02600
C669        C  0.36008314  0.18026253  0.33771305    -0.11500
H670        H  0.29567027  0.10603967  0.33710223     0.08200
H671        H  0.30550375  0.19162135  0.35809033     0.05700
H672        H  0.38457469  0.19340562  0.33412681     0.05600
C673        C  0.00624562  0.48348624  0.61941658     0.02600
C674        C  0.02171397  0.01556404  0.61453914    -0.13500
C675        C  0.00607493  0.02804025  0.60471575     0.00100
C676        C  0.47413878  0.00846891  0.59991949    -0.12100
C677        C  0.45761095  0.47667790  0.60566767     0.02600
C678        C  0.47392415  0.46416284  0.61554357    -0.11500
H679        H  0.04646457  0.03085037  0.61761574     0.08200
H680        H  0.46200506  0.01846632  0.59326883     0.05700
H681        H  0.46165450  0.43948925  0.61899337     0.05600
C682        C  0.12989659  0.35417760  0.58742919     0.02600
C683        C  0.16190589  0.37499998  0.59169579    -0.13500
C684        C  0.17884631  0.36530531  0.60577033     0.00100
C685        C  0.16381558  0.33454068  0.61495567    -0.12100
C686        C  0.13231292  0.31334068  0.60890691     0.02600
C687        C  0.11538862  0.32331587  0.59574826    -0.11500
H688        H  0.17362954  0.39886845  0.58474744     0.08200
H689        H  0.17705011  0.32643810  0.62389501     0.05700
H690        H  0.09090245  0.30682809  0.59154917     0.05600
C691        C  0.35463014  0.31468066  0.98690523     0.02600
C692        C  0.35026129  0.33561808  0.50246976    -0.13500
C693        C  0.33352812  0.32765248  0.53068107     0.00100
C694        C  0.32044313  0.29801901  0.54306364    -0.12100
C695        C  0.32493340  0.27688634  0.52816932     0.02600
C696        C  0.34193210  0.28524462  0.49990144    -0.11500
H697        H  0.35977064  0.35819282  0.99277423     0.08200
H698        H  0.30896379  0.29224751  0.56593523     0.05700
H699        H  0.34722789  0.26974975  0.98962510     0.05600
Zr700      Zr  0.10472226  0.42111655  0.55105202     2.17500
O701        O  0.13793793  0.42665385  0.50742885    -0.51800
O702        O  0.07161145  0.38465837  0.50665716    -0.75000
O703        O  0.12440057  0.39066170  0.56261962    -0.81800
O704        O  0.10749708  0.48708855  0.52886951    -0.83600
O705        O  0.08420980  0.35170576  0.58864447    -0.79200
O706        O  0.14094835  0.47503421  0.53286354    -0.90800
O707        O  0.02271562  0.36432008  0.52070901    -0.76800
O708        O  0.05762131  0.37823214  0.57214592    -0.86300
O709        O  0.06830872  0.43388724  0.54685383    -0.86000
O710        O  0.11522641  0.41671079  0.60706119    -0.72700
O711        O  0.12492208  0.46807470  0.58333769    -0.84900
Zr712      Zr  0.05546462  0.43488235  0.65902448     2.26400
Zr713      Zr  0.06715977  0.37410345  0.62765593     2.06300
Zr714      Zr  0.08747287  0.47913430  0.58229906     2.10000
Zr715      Zr  0.02289710  0.39223926  0.56925097     1.78800
O716        O  0.13036977  0.03064301  0.60131888    -0.93700
O717        O  0.48232266  0.33729557  0.57682539    -0.41500
O718        O  0.04683983  0.43587772  0.60410572    -0.78100
O719        O  0.03152098  0.38785709  0.62439344    -0.96800
O720        O  0.09021058  0.42083405  0.65932339    -0.88500
O721        O  0.10099055  0.47843417  0.63736154    -0.92900
C722        C  0.04247757  0.36557239  0.50180786     1.00800
C723        C  0.13435612  0.49409352  0.52523356     1.13700
C724        C  0.11144400  0.36544827  0.57793594     1.04500
O725        O  0.03762096  0.31781735  0.62987608    -0.95100
O726        O  0.02530756  0.35052778  0.66729021    -0.90800
O727        O  0.01846113  0.38727967  0.68540715    -0.84000
C728        C  0.01084423  0.35930721  0.68396283     1.11200
O729        O  0.18458589  0.49470776  0.60997793    -0.97100
Zr730      Zr  0.13606238  0.46384094  0.63749723     1.88900
O731        O  0.09363496  0.45278701  0.70726611    -0.73700
O732        O  0.09995415  0.37313810  0.66763056    -0.53000
O733        O  0.17640560  0.45689772  0.64971463    -0.97700
O734        O  0.16208323  0.01538857  0.66330904    -0.54900
O735        O  0.13198623  0.44910204  0.69173935    -0.74200
C736        C  0.11774778  0.45279725  0.71366602     0.98100
O737        O  0.53861656  0.45019080  0.70595701    -0.63100
O738        O  0.08242066  0.51677690  0.55586405    -0.57900
O739        O  0.02706320  0.45820386  0.64558330    -0.94500
O740        O  0.04402675  0.47978683  0.59688764    -0.93000
O741        O  0.00564173  0.41235344  0.52946244    -0.93300
O742        O  0.47302008  0.38221686  0.57929399    -0.92100
C743        C  0.02634606  0.47230414  0.62095488     1.16900
H744        H  0.06409834  0.43577725  0.52476083     0.32900
H745        H  0.01059811  0.37201183  0.62932339     0.43700
H746        H  0.10771923  0.49719500  0.64978853     0.37300
H747        H  0.13107993  0.41367730  0.61122217     0.33700
H748        H  0.47106350  0.32959991  0.55584684     0.25500
H749        H  0.08590073  0.35416338  0.67963311     0.31500
H750        H  0.18883398  0.47234576  0.66738974     0.37400
H751        H  0.49494608  0.39432574  0.51198518     0.31800
H752        H  0.10313623  0.53285973  0.54819669     0.30700
H753        H  0.14891732  0.03254315  0.59369108     0.32400
H754        H  0.18241655  0.02067227  0.67003566     0.31400
H755        H  0.47619693  0.39453691  0.59930397     0.35400
H756        H  0.54798730  0.47266230  0.70431585     0.28100
H757        H  0.13024381  0.40520872  0.50018283     0.32300
H758        H  0.18774805  0.51489389  0.60684536     0.35200
H759        H  0.07010337  0.50588835  0.53594352     0.27800
H760        H  0.51628052  0.43979447  0.70297119     0.40700
H761        H  0.01943101  0.31004688  0.61575129     0.30700
H762        H  0.99219489  0.32704705  0.57743136     0.38300
H763        H  0.15136491  0.01222422  0.68379172     0.30200
H764        H  0.11250110  0.36826153  0.65500450     0.30200
H765        H  0.15802330  0.43496143  0.51800910     0.30500
C766        C  0.16867387  0.07254164  0.98973913     0.02600
C767        C  0.19559910  0.09074558  0.00845593    -0.13500
C768        C  0.20426862  0.07761217  0.53175347     0.00100
C769        C  0.18554914  0.04508755  0.53491239    -0.12100
C770        C  0.15803300  0.02626738  0.51639484     0.02600
C771        C  0.14979339  0.04039875  0.99395564    -0.11500
H772        H  0.21011845  0.11549994  0.00484720     0.08200
H773        H  0.19118288  0.03478237  0.55311527     0.05700
H774        H  0.12867831  0.02607001  0.97984189     0.05600
C775        C  0.43250460  0.32467912  0.71992049     0.02600
C776        C  0.41692438  0.29436471  0.70563004    -0.13500
C777        C  0.43221338  0.28423807  0.68731628     0.00100
C778        C  0.46396545  0.30473122  0.68404509    -0.12100
C779        C  0.48023686  0.33541286  0.69723387     0.02600
C780        C  0.46432766  0.34487239  0.71569130    -0.11500
H781        H  0.39218433  0.27898160  0.70692447     0.08200
H782        H  0.47511911  0.29812389  0.66746594     0.05700
H783        H  0.47657252  0.36835700  0.72588025     0.05600
Zr784      Zr  0.37697186  0.18155575  0.62830397     2.17500
O785        O  0.42030565  0.19042227  0.65937386    -0.51800
O786        O  0.40805688  0.17533468  0.58870666    -0.75000
O787        O  0.36116161  0.13351524  0.65521594    -0.81800
O788        O  0.40203412  0.26770259  0.64154518    -0.83600
O789        O  0.31497433  0.09497823  0.63261898    -0.79200
O790        O  0.40875435  0.23226497  0.66172362    -0.90800
O791        O  0.38564115  0.16242936  0.53885626    -0.76800
O792        O  0.34533374  0.14652235  0.58447491    -0.86300
O793        O  0.38319276  0.21220811  0.58374325    -0.86000
O794        O  0.32453748  0.15067393  0.64659667    -0.72700
O795        O  0.35863156  0.21159349  0.64474032    -0.84900
Zr796      Zr  0.28065079  0.17744101  0.57844276     2.26400
Zr797      Zr  0.29334612  0.11637840  0.60151922     2.06300
Zr798      Zr  0.36351537  0.24131662  0.60054333     2.10000
Zr799      Zr  0.35075194  0.17724071  0.54076044     1.78800
O800        O  0.36339020  0.28345629  0.62619994    -0.93700
O801        O  0.32982098  0.13339549  0.50218169    -0.41500
O802        O  0.33149788  0.20657535  0.55757208    -0.78100
O803        O  0.29886153  0.14740060  0.55746113    -0.96800
O804        O  0.27694965  0.14712311  0.62144739    -0.90100
O805        O  0.31248489  0.21328542  0.62102890    -0.92900
C806        C  0.40581219  0.16626709  0.55884475     1.00800
C807        C  0.41388104  0.25967891  0.66185283     1.13700
C808        C  0.33819610  0.10479496  0.65150932     1.04500
O809        O  0.29089659  0.07664274  0.56716274    -0.95100
O810        O  0.24456753  0.08941208  0.56981646    -0.90800
O811        O  0.24195492  0.12814862  0.55197521    -0.84000
C812        C  0.23181226  0.09938306  0.55285333     1.11200
O813        O  0.34328905  0.20387603  0.71113072    -0.97100
Zr814      Zr  0.30836272  0.18234150  0.66437765     1.88900
O815        O  0.24024013  0.16382799  0.61831548    -0.73700
O816        O  0.25273877  0.07964547  0.63665243    -0.53000
O817        O  0.28854579  0.14486761  0.70690959    -0.97700
O818        O  0.30419146  0.22195363  0.69020818    -0.54900
O819        O  0.25455576  0.15682314  0.66667181    -0.74200
C820        C  0.23454307  0.15423078  0.64747679     0.98100
O821        O  0.24051478  0.17594806  0.54822133    -0.63100
O822        O  0.40982255  0.27789345  0.57153998    -0.57900
O823        O  0.29734963  0.22650400  0.55171507    -0.94500
O824        O  0.34831412  0.26224693  0.56165561    -0.93000
O825        O  0.39427056  0.22256927  0.51595752    -0.93300
O826        O  0.33815218  0.18567399  0.48757954    -0.92100
C827        C  0.32293855  0.25329410  0.54813874     1.16900
H828        H  0.40443101  0.22528280  0.57782932     0.32900
H829        H  0.28789650  0.13481666  0.53838372     0.43700
H830        H  0.30647676  0.22693248  0.62675409     0.37300
H831        H  0.32163819  0.13934854  0.66560604     0.33700
H832        H  0.34669563  0.13935109  0.48728135     0.25500
H833        H  0.24989590  0.05964401  0.63159142     0.31500
H834        H  0.27705096  0.15011223  0.72097494     0.37400
H835        H  0.40241644  0.21407957  0.50104242     0.31800
H836        H  0.41256143  0.29806349  0.57457329     0.30700
H837        H  0.38134932  0.30266124  0.61751573     0.32400
H838        H  0.29732725  0.21475884  0.71226550     0.31400
H839        H  0.31764521  0.18150908  0.48983774     0.35400
H840        H  0.23975254  0.19303110  0.55748651     0.28100
H841        H  0.42281182  0.17408304  0.65154527     0.32300
H842        H  0.33035248  0.19912293  0.73016130     0.35200
H843        H  0.42680387  0.28041836  0.58438379     0.27800
H844        H  0.24799169  0.18193066  0.52605308     0.40700
H845        H  0.31225323  0.08280116  0.56651892     0.30700
H846        H  0.32765589  0.11657272  0.51466704     0.38300
H847        H  0.28620465  0.21941958  0.67965040     0.30200
H848        H  0.26217030  0.08589208  0.65858081     0.30200
H849        H  0.41282142  0.18471566  0.68158156     0.30500
Zr850      Zr  0.35493457  0.42790538  0.55788211     2.17500
O851        O  0.38924227  0.44183288  0.51277852    -0.51800
O852        O  0.34672045  0.37889484  0.53989456    -0.75000
O853        O  0.40908299  0.45375171  0.57758429    -0.81800
O854        O  0.29048326  0.40757883  0.50609171    -0.83600
O855        O  0.41029482  0.45170868  0.63226080    -0.79200
O856        O  0.34058502  0.44492983  0.50971178    -0.90800
O857        O  0.31144610  0.33986225  0.57087108    -0.76800
O858        O  0.34589617  0.40061910  0.60639069    -0.86300
O859        O  0.30133851  0.38627373  0.55886010    -0.86000
O860        O  0.37010623  0.46538873  0.60190098    -0.72700
O861        O  0.32740498  0.45127525  0.55722820    -0.84900
Zr862      Zr  0.28129434  0.42139823  0.65091694     2.26400
Zr863      Zr  0.36040812  0.43743021  0.65040706     2.06300
Zr864      Zr  0.27414761  0.40976357  0.55925559     2.10000
Zr865      Zr  0.29240652  0.36011264  0.60737416     1.78800
O866        O  0.26658720  0.44450122  0.53052156    -0.93700
O867        O  0.30949702  0.33532364  0.64069682    -0.41500
O868        O  0.26486494  0.38301601  0.60796800    -0.78100
O869        O  0.30699593  0.39576464  0.65145704    -0.96800
O870        O  0.33458666  0.46232608  0.64960862    -0.90100
O871        O  0.28819635  0.44707029  0.60199310    -0.92900
C872        C  0.33053173  0.35041077  0.54817371     1.00800
C873        C  0.31424005  0.43158796  0.49498310     1.13700
C874        C  0.42334743  0.45851240  0.60484506     1.04500
O875        O  0.37857518  0.41110897  0.67898300    -0.95100
O876        O  0.34112206  0.42642810  0.70557964    -0.90800
O877        O  0.29162708  0.41111034  0.70400229    -0.84000
C878        C  0.31500562  0.41536611  0.71871705     1.11200
O879        O  0.38685637  0.02814412  0.57218620    -0.97100
Zr880      Zr  0.34176459  0.48776870  0.60054757     1.88900
O881        O  0.29715455  0.47265863  0.67150888    -0.73700
O882        O  0.39589170  0.48687578  0.67921995    -0.53000
O883        O  0.37782390  0.02870199  0.63975338    -0.97700
O884        O  0.33168597  0.01448403  0.56154129    -0.54900
O885        O  0.31059915  0.50036127  0.62719794    -0.74200
C886        C  0.30608455  0.49760345  0.65722883     0.98100
O887        O  0.24504334  0.41249638  0.69252624    -0.63100
O888        O  0.23083467  0.36412896  0.53083216    -0.57900
O889        O  0.22737393  0.39047348  0.63228677    -0.94500
O890        O  0.22464651  0.39367937  0.57808634    -0.93000
O891        O  0.24677635  0.31930918  0.57706617    -0.93300
O892        O  0.25324845  0.32058463  0.64179010    -0.92100
C893        C  0.21244880  0.38508059  0.60564382     1.16900
H894        H  0.29480701  0.37201990  0.54044188     0.32900
H895        H  0.30217077  0.38246987  0.66923463     0.43700
H896        H  0.27465713  0.45360461  0.60042972     0.37300
H897        H  0.39135841  0.48270445  0.60113394     0.33700
H898        H  0.30076481  0.31473000  0.62995283     0.25500
H899        H  0.40963819  0.48361485  0.69154606     0.31500
H900        H  0.37356951  0.04463972  0.63886629     0.37400
H901        H  0.24818527  0.30137216  0.57623067     0.31800
H902        H  0.22886267  0.37181463  0.51020766     0.30700
H903        H  0.25045610  0.43096283  0.51403072     0.32400
H904        H  0.33751912  0.03408026  0.57279386     0.31400
H905        H  0.24733101  0.33175397  0.65584782     0.35400
H906        H  0.23379070  0.42082660  0.68438316     0.28100
H907        H  0.39989226  0.43177799  0.51652655     0.32300
H908        H  0.39145068  0.04822079  0.58063170     0.35200
H909        H  0.23813689  0.35115622  0.52474452     0.27800
H910        H  0.22968698  0.38972827  0.69290524     0.40700
H911        H  0.36000852  0.38988041  0.68182857     0.30700
H912        H  0.33179369  0.34700202  0.63715858     0.38300
H913        H  0.30812713  0.50156431  0.55999175     0.30200
H914        H  0.40894306  0.50125529  0.66230539     0.30200
H915        H  0.40528671  0.46435659  0.51610309     0.30500
C916        C  0.33688362  0.08080475  0.67064528     0.02600
C917        C  0.31831018  0.05002532  0.65895891    -0.13500
C918        C  0.31630230  0.02622290  0.67533744     0.00100
C919        C  0.33125399  0.03266585  0.70522213    -0.12100
C920        C  0.34966307  0.06322278  0.71798973     0.02600
C921        C  0.35264528  0.08743890  0.70029457    -0.11500
H922        H  0.30678749  0.04466579  0.63565191     0.08200
H923        H  0.33022122  0.01423083  0.71742948     0.05700
H924        H  0.36680021  0.11125030  0.70963481     0.05600
C925        C  0.16755507  0.11107990  0.70452705     0.02600
C926        C  0.19623596  0.12384271  0.69022499    -0.13500
C927        C  0.20324154  0.13854602  0.66046353     0.00100
C928        C  0.18076489  0.13931567  0.64454081    -0.12100
C929        C  0.15224071  0.12708464  0.65868753     0.02600
C930        C  0.14555714  0.11253647  0.68824109    -0.11500
H931        H  0.21363647  0.12329713  0.70290439     0.08200
H932        H  0.18623627  0.15122852  0.62211058     0.05700
H933        H  0.12380430  0.10384665  0.69936418     0.05600
Zr934      Zr  0.06672711  0.13145954  0.64958522     2.17500
O935        O  0.04960361  0.09565796  0.69351460    -0.51800
O936        O  0.11063161  0.13118799  0.66263431    -0.75000
O937        O  0.03527366  0.07754140  0.62981406    -0.81800
O938        O  0.09420073  0.19676266  0.70737239    -0.83600
O939        O  0.02617636  0.07406204  0.57566193    -0.79200
O940        O  0.05430402  0.14685536  0.70005474    -0.90800
O941        O  0.13694448  0.14427674  0.61671788    -0.76800
O942        O  0.08870560  0.13496927  0.59847773    -0.86300
O943        O  0.11395544  0.18223374  0.64981240    -0.86000
O944        O  0.02948798  0.12238910  0.60949316    -0.72700
O945        O  0.05350417  0.16741835  0.65593534    -0.84900
Zr946      Zr  0.08344419  0.21216736  0.56461487     2.26400
Zr947      Zr  0.05274235  0.12751077  0.55804642     2.06300
Zr948      Zr  0.10036050  0.21805924  0.65475200     2.10000
Zr949      Zr  0.13510162  0.18579483  0.59864949     1.78800
O950        O  0.07866499  0.23919794  0.68841477    -0.93700
O951        O  0.15562663  0.17287952  0.55365756    -0.41500
O952        O  0.12213326  0.22226232  0.60327122    -0.78100
O953        O  0.09997440  0.17849869  0.55846510    -0.96800
O954        O  0.03706844  0.16136979  0.56549785    -0.90100
O955        O  0.06279648  0.20961038  0.61636734    -0.92900
C956        C  0.13164648  0.13396248  0.64501457     1.00800
C957        C  0.06922349  0.17257323  0.71689012     1.13700
C958        C  0.02342119  0.06202387  0.60307079     1.04500
O959        O  0.06959910  0.10004848  0.52725948    -0.95100
O960        O  0.06796171  0.14975089  0.50392891    -0.90800
O961        O  0.08686042  0.20102090  0.50867735    -0.84000
C962        C  0.08064457  0.17697476  0.49223066     1.11200
O963        O  0.47665904  0.11830992  0.65045257    -0.97100
Zr964      Zr  0.01655525  0.15864137  0.61743083     1.88900
O965        O  0.03506872  0.20073749  0.54476039    -0.73700
O966        O  0.00429603  0.10146767  0.52805561    -0.53000
O967        O  0.46920055  0.12401397  0.58608415    -0.97700
O968        O  0.49981595  0.17740927  0.66064365    -0.54900
O969        O  0.01255940  0.19589240  0.59126332    -0.74200
C970        C  0.01196262  0.19472661  0.56080788     0.98100
O971        O  0.11280481  0.25347997  0.52667579    -0.63100
O972        O  0.15095666  0.25293206  0.68010522    -0.57900
O973        O  0.10245482  0.26347299  0.58581896    -0.94500
O974        O  0.12261687  0.26995052  0.63617453    -0.93000
O975        O  0.17864590  0.21389846  0.63639197    -0.93300
O976        O  0.17978403  0.22952028  0.57344885    -0.92100
C977        C  0.11805502  0.28011787  0.61077981     1.16900
H978        H  0.12764911  0.18574901  0.66733262     0.32900
H979        H  0.11170469  0.18230186  0.53939012     0.43700
H980        H  0.05927632  0.22545989  0.62033497     0.37300
H981        H  0.01034680  0.10226134  0.61110343     0.33700
H982        H  0.17076408  0.17013663  0.56355985     0.25500
H983        H  0.00376351  0.08546494  0.51430843     0.31500
H984        H  0.45459853  0.12799513  0.59523909     0.37400
H985        H  0.19045936  0.20506238  0.63206349     0.31800
H986        H  0.15436293  0.23943762  0.69258145     0.30700
H987        H  0.09515507  0.25335998  0.70430941     0.32400
H988        H  0.50988328  0.19968110  0.65668956     0.31400
H989        H  0.17119378  0.23552212  0.55659718     0.35400
H990        H  0.10282359  0.26448517  0.52539083     0.28100
H991        H  0.05673878  0.08235416  0.68838526     0.32300
H992        H  0.48794730  0.11561607  0.66736678     0.35200
H993        H  0.16534669  0.25963968  0.66208808     0.27800
H994        H  0.13311365  0.26859688  0.53712384     0.40700
H995        H  0.08315733  0.09876045  0.54236237     0.30700
H996        H  0.13852416  0.15169959  0.54618162     0.38300
H997        H  0.01089946  0.17769209  0.68054354     0.30200
H998        H  0.98848166  0.08957992  0.54431269     0.30200
H999        H  0.52763790  0.08225263  0.69169750     0.30500
C1000       C  0.42869505  0.16127829  0.54582914     0.02600
C1001       C  0.45826425  0.17872140  0.55930567    -0.13500
C1002       C  0.48168590  0.17839347  0.54474080     0.00100
C1003       C  0.47533675  0.15906742  0.51747522    -0.12100
C1004       C  0.44565818  0.14036228  0.00400939     0.02600
C1005       C  0.42260574  0.14222872  0.51779339    -0.11500
H1006       H  0.46343645  0.19350688  0.58062576     0.08200
H1007       H  0.49335762  0.15863427  0.00632735     0.05700
H1008       H  0.40033365  0.13041165  0.00572907     0.05600
C1009       C  0.47803557  0.02954639  0.87396602     0.02600
C1010       C  0.45684005  0.49727896  0.86913492    -0.13500
C1011       C  0.46652983  0.47884695  0.85682777     0.00100
C1012       C  0.99769414  0.99307223  0.85051116    -0.12100
C1013       C  0.01891700  0.02500403  0.85728198     0.02600
C1014       C  0.00897172  0.04277370  0.86907538    -0.11500
H1015       H  0.43273030  0.48663318  0.87309972     0.08200
H1016       H  0.00564296  0.47902445  0.84186703     0.05700
H1017       H  0.02549131  0.06765278  0.87302890     0.05600
Zr1018     Zr  0.12088986  0.08308273  0.89892212     2.17500
O1019       O  0.08099791  0.06304962  0.93912721    -0.51800
O1020       O  0.11947250  0.12767400  0.91478375    -0.75000
O1021       O  0.13566774  0.07293211  0.95060632    -0.81800
O1022       O  0.06329329  0.04630031  0.82590307    -0.83600
O1023       O  0.18567633  0.11036628  0.95029073    -0.79200
O1024       O  0.06768562  0.05017521  0.88074862    -0.90800
O1025       O  0.15118966  0.16803603  0.88333913    -0.76800
O1026       O  0.17278926  0.12772222  0.89890326    -0.86300
O1027       O  0.12617476  0.10963724  0.85090314    -0.86000
O1028       O  0.15060379  0.06140435  0.89764323    -0.72700
O1029       O  0.10810407  0.04739422  0.85365712    -0.84900
Zr1030     Zr  0.19840878  0.10002693  0.80654961     2.26400
Zr1031     Zr  0.20241370  0.10662061  0.89754190     2.06300
Zr1032     Zr  0.11531970  0.07506295  0.80567708     2.10000
Zr1033     Zr  0.17807729  0.15369198  0.85062444     1.78800
O1034       O  0.08283441  0.03017243  0.76931693    -0.93700
O1035       O  0.21745424  0.19926012  0.88271643    -0.41500
O1036       O  0.16744775  0.11945456  0.80584231    -0.78100
O1037       O  0.20997431  0.13573005  0.85085677    -0.96800
O1038       O  0.19155256  0.07157492  0.85332150    -0.90100
O1039       O  0.14591856  0.05550706  0.80412470    -0.92900
C1040       C  0.13116113  0.15528583  0.90508086     1.00800
C1041       C  0.05200413  0.04079545  0.85421899     1.13700
C1042       C  0.16271738  0.08667660  0.96305354     1.04500
O1043       O  0.24426696  0.14195424  0.93520257    -0.95100
O1044       O  0.25362212  0.13281673  0.87730632    -0.90800
O1045       O  0.24802131  0.11446631  0.82559427    -0.84000
C1046       C  0.26417367  0.13004306  0.85080667     1.11200
O1047       O  0.11339514  0.49401218  0.89588793    -0.97100
Zr1048     Zr  0.13911506  0.02816893  0.85137250     1.88900
O1049       O  0.19324697  0.05531790  0.78158165    -0.73700
O1050       O  0.20894305  0.06814850  0.91860446    -0.53000
O1051       O  0.13127161  0.97782793  0.85313362    -0.97700
O1052       O  0.09793618  0.49270557  0.81303588    -0.54900
O1053       O  0.18362054  0.03388409  0.82874031    -0.74200
C1054       C  0.18522850  0.03209769  0.79833047     0.98100
O1055       O  0.24251931  0.14074660  0.77706122    -0.63100
O1056       O  0.09430065  0.10191987  0.78445233    -0.57900
O1057       O  0.18509791  0.10265061  0.75215059    -0.94500
O1058       O  0.13720643  0.09165876  0.75192003    -0.93000
O1059       O  0.15726638  0.17187097  0.81280924    -0.93300
O1060       O  0.21791487  0.19543567  0.81859646    -0.92100
C1061       C  0.16256310  0.10048010  0.73813106     1.16900
H1062       H  0.11211851  0.11558010  0.85051577     0.32900
H1063       H  0.23071570  0.15400825  0.84959026     0.43700
H1064       H  0.14101101  0.04287488  0.78463203     0.37300
H1065       H  0.14813304  0.04880214  0.91530061     0.33700
H1066       H  0.21213192  0.21434360  0.88108210     0.25500
H1067       H  0.22844913  0.07336857  0.90951545     0.31500
H1068       H  0.12778357  0.46820301  0.83929198     0.37400
H1069       H  0.16353209  0.19237988  0.82190705     0.31800
H1070       H  0.08132140  0.08877158  0.76567622     0.30700
H1071       H  0.07607833  0.03781944  0.75225069     0.32400
H1072       H  0.08201595  0.47581336  0.82631820     0.31400
H1073       H  0.22176073  0.18476872  0.80133257     0.35400
H1074       H  0.23505488  0.15035338  0.76356687     0.28100
H1075       H  0.09044188  0.07763144  0.95810597     0.32300
H1076       H  0.09345330  0.49130299  0.89675588     0.35200
H1077       H  0.07956847  0.09959142  0.80062105     0.27800
H1078       H  0.25592239  0.15743024  0.79337005     0.40700
H1079       H  0.24749495  0.16225739  0.93268186     0.30700
H1080       H  0.21316888  0.19276923  0.90530315     0.38300
H1081       H  0.10273443  0.98834748  0.79724394     0.30200
H1082       H  0.21366005  0.07386279  0.94184997     0.30200
H1083       H  0.07742834  0.04345549  0.94617076     0.30500
C1084       C  0.09328052  0.18279026  0.95927820     0.02600
C1085       C  0.10160542  0.21005188  0.94377376    -0.13500
C1086       C  0.12008154  0.21995614  0.91637523     0.00100
C1087       C  0.12976522  0.20190239  0.90439785    -0.12100
C1088       C  0.12081503  0.17398876  0.91882421     0.02600
C1089       C  0.10240272  0.16453888  0.94606269    -0.11500
H1090       H  0.09466201  0.22427527  0.95381885     0.08200
H1091       H  0.14371311  0.20932188  0.88315806     0.05700
H1092       H  0.09667696  0.14392275  0.95804282     0.05600
C1093       C  0.05456515  0.17650303  0.74486574     0.02600
C1094       C  0.07091502  0.20435659  0.76344607    -0.13500
C1095       C  0.05567051  0.21311518  0.78340069     0.00100
C1096       C  0.02400785  0.19378753  0.78515943    -0.12100
C1097       C  0.00754333  0.16514141  0.76801287     0.02600
C1098       C  0.02278357  0.15619166  0.74845135    -0.11500
H1099       H  0.09551999  0.22023083  0.76100403     0.08200
H1100       H  0.01235791  0.20104504  0.79998776     0.05700
H1101       H  0.50951889  0.13462662  0.73426748     0.05600
Zr1102     Zr  0.41182409  0.12558734  0.80703829     2.17500
O1103       O  0.41556398  0.16599481  0.77561551    -0.51800
O1104       O  0.38227213  0.09825948  0.75935033    -0.75000
O1105       O  0.45908076  0.15483687  0.77815689    -0.81800
O1106       O  0.34129911  0.10366790  0.84343252    -0.83600
O1107       O  0.46415002  0.11632719  0.77989758    -0.79200
O1108       O  0.38350104  0.14594881  0.82362939    -0.90800
O1109       O  0.36280882  0.04756615  0.76520016    -0.76800
O1110       O  0.42426358  0.08879473  0.80032444    -0.86300
O1111       O  0.36719095  0.07680181  0.82280907    -0.86000
O1112       O  0.45733702  0.14558495  0.84000912    -0.72700
O1113       O  0.40328874  0.13289658  0.86207561    -0.84900
Zr1114     Zr  0.42048834  0.07076658  0.90825327     2.26400
Zr1115     Zr  0.46804010  0.10703463  0.83539970     2.06300
Zr1116     Zr  0.36112294  0.08316158  0.87878159     2.10000
Zr1117     Zr  0.38057911  0.04155190  0.81753250     1.78800
O1118       O  0.35404434  0.11100721  0.92167516    -0.93700
O1119       O  0.40258113  0.02410825  0.77879906    -0.41500
O1120       O  0.37962332  0.05372714  0.87171731    -0.78100
O1121       O  0.42384404  0.05876912  0.85221502    -0.96800
O1122       O  0.46368594  0.11848618  0.89070571    -0.90100
O1123       O  0.40491676  0.10497399  0.91265487    -0.92900
C1124       C  0.36604498  0.06995783  0.74938053     1.00800
C1125       C  0.35603141  0.13129664  0.83341852     1.13700
C1126       C  0.47484688  0.14404867  0.77313359     1.04500
O1127       O  0.50460284  0.10344099  0.80416667    -0.95100
O1128       O  0.47838175  0.07076613  0.85430584    -0.90800
O1129       O  0.44946756  0.04758796  0.89803745    -0.84000
C1130       C  0.46850699  0.05097821  0.87653075     1.11200
O1131       O  0.47539764  0.20549981  0.87388770    -0.97100
Zr1132     Zr  0.44824775  0.15322087  0.89425214     1.88900
O1133       O  0.43624968  0.10326676  0.96045484    -0.73700
O1134       O  0.01902565  0.15268802  0.85043195    -0.53000
O1135       O  0.50091097  0.18095945  0.91437477    -0.97700
O1136       O  0.42926663  0.18329179  0.91352273    -0.54900
O1137       O  0.44732872  0.15088094  0.95085326    -0.74200
C1138       C  0.44293018  0.13036340  0.96982837     0.98100
O1139       O  0.42584876  0.04604353  0.95416812    -0.63100
O1140       O  0.30528145  0.05141996  0.88087796    -0.57900
O1141       O  0.37292216  0.02974028  0.92811525    -0.94500
O1142       O  0.33696737  0.03637863  0.91018443    -0.93000
O1143       O  0.32546593  0.00264488  0.81964009    -0.93300
O1144       O  0.36432297  0.48826067  0.82509538    -0.92100
C1145       C  0.34544740  0.02139315  0.92522421     1.16900
H1146       H  0.34880338  0.06984017  0.81049316     0.32900
H1147       H  0.42419883  0.04086686  0.84871072     0.43700
H1148       H  0.39749532  0.10568702  0.93355312     0.37300
H1149       H  0.47444990  0.16551171  0.83335052     0.33700
H1150       H  0.40691725  0.03656797  0.75958246     0.25500
H1151       H  0.03078383  0.15877463  0.83035833     0.31500
H1152       H  0.50264893  0.19493702  0.93210450     0.37400
H1153       H  0.31956598  0.00671764  0.84074008     0.31800
H1154       H  0.29997319  0.06616597  0.88650048     0.30700
H1155       H  0.35193355  0.12598466  0.91040247     0.32400
H1156       H  0.44266359  0.19597625  0.93227993     0.31400
H1157       H  0.36409814  0.48628327  0.84873579     0.35400
H1158       H  0.41859859  0.52499317  0.94753526     0.28100
H1159       H  0.41951840  0.16241956  0.75321927     0.32300
H1160       H  0.48493667  0.21984047  0.89302498     0.35200
H1161       H  0.29798526  0.04456359  0.85826139     0.27800
H1162       H  0.44814555  0.05682129  0.95813059     0.40700
H1163       H  0.49206875  0.08720478  0.78715339     0.30700
H1164       H  0.42305239  0.03184281  0.78791506     0.38300
H1165       H  0.40924776  0.16786968  0.92300064     0.30200
H1166       H  0.01668001  0.16966053  0.85552337     0.30200
H1167       H  0.43472769  0.18571397  0.78322817     0.30500
C1168       C  0.03708328  0.31880047  0.92514327     0.02600
C1169       C  0.04837337  0.33688162  0.95457811    -0.13500
C1170       C  0.03023959  0.34381248  0.97260898     0.00100
C1171       C  0.50108888  0.33277305  0.96007346    -0.12100
C1172       C  0.49073689  0.31675332  0.93009215     0.02600
C1173       C  0.00814697  0.30886556  0.91344972    -0.11500
H1174       H  0.07173835  0.34680623  0.96246067     0.08200
H1175       H  0.48776008  0.33983970  0.97176388     0.05700
H1176       H  0.00102559  0.29864966  0.88920214     0.05600
Zr1177     Zr  0.20148900  0.39566239  0.83705840     2.17500
O1178       O  0.24325856  0.43948637  0.80860286    -0.51800
O1179       O  0.23930735  0.42754343  0.88158490    -0.75000
O1180       O  0.18670637  0.42917147  0.81185233    -0.81800
O1181       O  0.23179950  0.34405274  0.82983771    -0.83600
O1182       O  0.13611235  0.40840902  0.81909132    -0.79200
O1183       O  0.23789691  0.38739498  0.81092768    -0.90800
O1184       O  0.22109041  0.40371411  0.92909770    -0.76800
O1185       O  0.16926838  0.39336051  0.87834352    -0.86300
O1186       O  0.20145783  0.36457859  0.87821117    -0.86000
O1187       O  0.15142568  0.36851702  0.81201231    -0.72700
O1188       O  0.18294155  0.34477643  0.81428448    -0.84900
Zr1189     Zr  0.09842639  0.28758704  0.87274921     2.26400
Zr1190     Zr  0.11898956  0.36638473  0.85354177     2.06300
Zr1191     Zr  0.18183278  0.31404851  0.85661672     2.10000
Zr1192     Zr  0.16937525  0.36242203  0.91928560     1.78800
O1193       O  0.18462505  0.27885645  0.81989219    -0.93700
O1194       O  0.16648763  0.40160853  0.94831242    -0.41500
O1195       O  0.14860908  0.31141765  0.89735853    -0.78100
O1196       O  0.11990167  0.33821134  0.89690107    -0.96800
O1197       O  0.09837921  0.31597898  0.82941465    -0.90100
O1198       O  0.13208600  0.28920856  0.83318352    -0.92900
C1199       C  0.24239682  0.42416909  0.91178713     1.00800
C1200       C  0.24641944  0.36899563  0.81353373     1.13700
C1201       C  0.16194862  0.42826903  0.80701706     1.04500
O1202       O  0.12434622  0.40983708  0.88338505    -0.95100
O1203       O  0.07504981  0.34502664  0.88723105    -0.90800
O1204       O  0.06164161  0.29688500  0.89910990    -0.84000
C1205       C  0.05862839  0.31962432  0.90194796     1.11200
O1206       O  0.15399566  0.34653958  0.74084082    -0.97100
Zr1207     Zr  0.13294851  0.31867885  0.79048271     1.88900
O1208       O  0.06898710  0.24770483  0.82906833    -0.73700
O1209       O  0.07437078  0.35339663  0.82186857    -0.53000
O1210       O  0.09404263  0.31815911  0.75911043    -0.97700
O1211       O  0.15545740  0.29830865  0.75674154    -0.54900
O1212       O  0.09397227  0.26524349  0.78190772    -0.74200
C1213       C  0.07338760  0.24398923  0.79923893     0.98100
O1214       O  0.05557469  0.24207613  0.89780299    -0.63100
O1215       O  0.21720096  0.31658992  0.89597497    -0.57900
O1216       O  0.10895378  0.25556338  0.90217772    -0.94500
O1217       O  0.15292419  0.26362546  0.88328627    -0.93000
O1218       O  0.18972818  0.34384621  0.95705129    -0.93300
O1219       O  0.14112433  0.34336765  0.96902727    -0.92100
C1220       C  0.12804501  0.24827835  0.89959951     1.16900
H1221       H  0.22185640  0.37220768  0.88558852     0.32900
H1222       H  0.11025345  0.33874086  0.91618780     0.43700
H1223       H  0.12609411  0.26872441  0.82636965     0.37300
H1224       H  0.15099857  0.37767216  0.79253094     0.33700
H1225       H  0.17694238  0.40501803  0.96934996     0.25500
H1226       H  0.07322563  0.37135792  0.82551461     0.31500
H1227       H  0.08613839  0.30077631  0.74300412     0.37400
H1228       H  0.20634936  0.34472403  0.94538895     0.31800
H1229       H  0.22055442  0.30090751  0.88793034     0.30700
H1230       H  0.19526618  0.27194497  0.83251500     0.32400
H1231       H  0.14055806  0.28656725  0.73871026     0.31400
H1232       H  0.12564744  0.32087679  0.96453923     0.35400
H1233       H  0.05495082  0.24886122  0.92011783     0.28100
H1234       H  0.24598940  0.45821421  0.81872530     0.32300
H1235       H  0.14086613  0.33174184  0.72301357     0.35200
H1236       H  0.23703913  0.33675939  0.89295173     0.27800
H1237       H  0.03719140  0.23815262  0.88671340     0.40700
H1238       H  0.12285209  0.40459073  0.90630478     0.30700
H1239       H  0.18047831  0.42109879  0.93704072     0.38300
H1240       H  0.15419061  0.28211021  0.76955377     0.30200
H1241       H  0.08049074  0.35466993  0.79916218     0.30200
H1242       H  0.23510689  0.43766744  0.78657892     0.30500
Zr1243     Zr  0.41115018  0.37613002  0.80286831     2.17500
O1244       O  0.42781266  0.41481358  0.76209698    -0.51800
O1245       O  0.36504680  0.37538198  0.78933502    -0.75000
O1246       O  0.42721457  0.36146166  0.75227885    -0.81800
O1247       O  0.43235210  0.43023303  0.87974434    -0.83600
O1248       O  0.39090750  0.31137127  0.75323022    -0.79200
O1249       O  0.44301855  0.43025679  0.82654832    -0.90800
O1250       O  0.32390113  0.33932856  0.81765142    -0.76800
O1251       O  0.37142728  0.32143533  0.79963245    -0.86300
O1252       O  0.37920002  0.36495652  0.84847387    -0.86000
O1253       O  0.43667909  0.34992246  0.80697014    -0.72700
O1254       O  0.44181059  0.38989964  0.85156637    -0.84900
Zr1255     Zr  0.39542321  0.29753532  0.89449923     2.26400
Zr1256     Zr  0.39615293  0.29516122  0.80426951     2.06300
Zr1257     Zr  0.40912187  0.37735236  0.89665470     2.10000
Zr1258     Zr  0.33946369  0.31075772  0.84442146     1.78800
O1259       O  0.44994823  0.40979442  0.93647541    -0.93700
O1260       O  0.30417726  0.27503819  0.80165467    -0.41500
O1261       O  0.37007088  0.32309378  0.89186981    -0.78100
O1262       O  0.36225739  0.28306642  0.84776930    -0.96800
O1263       O  0.42854685  0.30936659  0.85075579    -0.90100
O1264       O  0.43443651  0.35203661  0.90016313    -0.92900
C1265       C  0.33705773  0.36194668  0.79872936     1.00800
C1266       C  0.44532870  0.44429508  0.85380946     1.13700
C1267       C  0.41546397  0.33341038  0.74131620     1.04500
O1268       O  0.36484212  0.25279976  0.76499957    -0.95100
O1269       O  0.37362781  0.24283832  0.82075342    -0.90800
O1270       O  0.37054169  0.24393120  0.87522643    -0.84000
C1271       C  0.36557939  0.22976257  0.84784127     1.11200
O1272       O  0.00492952  0.40794355  0.82408004    -0.97100
Zr1273     Zr  0.46660820  0.36417532  0.85508924     1.88900
O1274       O  0.44095050  0.30361096  0.91747511    -0.73700
O1275       O  0.43731914  0.29158981  0.78548658    -0.53000
O1276       O  0.49715798  0.35136619  0.82453915    -0.97700
O1277       O  0.50392269  0.40718719  0.89143227    -0.54900
O1278       O  0.48232808  0.34056067  0.89016144    -0.74200
C1279       C  0.46959904  0.31989636  0.91125344     0.98100
O1280       O  0.37832260  0.26111007  0.93795947    -0.63100
O1281       O  0.37833578  0.39451611  0.91768783    -0.57900
O1282       O  0.37369430  0.30249842  0.94277421    -0.94500
O1283       O  0.38359809  0.35052772  0.94590478    -0.93000
O1284       O  0.31070605  0.31895664  0.88372832    -0.93300
O1285       O  0.29641174  0.26272858  0.86594848    -0.92100
C1286       C  0.37214398  0.32338991  0.95693180     1.16900
H1287       H  0.37154748  0.37765250  0.84959701     0.32900
H1288       H  0.34474422  0.26170511  0.84686894     0.43700
H1289       H  0.44541782  0.35716340  0.92050296     0.37300
H1290       H  0.45202328  0.35518713  0.79116523     0.33700
H1291       H  0.28547109  0.27451413  0.80447201     0.25500
H1292       H  0.42815672  0.27620538  0.76715895     0.31500
H1293       H  0.51639217  0.36070444  0.83736907     0.37400
H1294       H  0.29234058  0.31420695  0.87173003     0.31800
H1295       H  0.39180584  0.41114888  0.93400606     0.30700
H1296       H  0.43922767  0.40913479  0.95620313     0.32400
H1297       H  0.02253021  0.40758268  0.88987219     0.31400
H1298       H  0.30490277  0.25964190  0.88545377     0.35400
H1299       H  0.35631417  0.24470548  0.93350939     0.28100
H1300       H  0.41538825  0.40308886  0.74248119     0.32300
H1301       H  0.02507208  0.41300819  0.83124297     0.35200
H1302       H  0.37629651  0.40540227  0.89999144     0.27800
H1303       H  0.38866266  0.25054797  0.93488998     0.40700
H1304       H  0.34419842  0.24844142  0.76655105     0.30700
H1305       H  0.31292131  0.28605065  0.78143075     0.38300
H1306       H  0.49568265  0.40108497  0.91329999     0.30200
H1307       H  0.45243362  0.31158546  0.77567131     0.30200
H1308       H  0.44892737  0.42176448  0.75695112     0.30500
C1309       C  0.30991409  0.40274072  0.75127581     0.02600
C1310       C  0.32755993  0.39256088  0.76200751    -0.13500
C1311       C  0.31872972  0.37369971  0.78855670     0.00100
C1312       C  0.29201838  0.36580121  0.80529345    -0.12100
C1313       C  0.27468540  0.37703103  0.79595399     0.02600
C1314       C  0.28412535  0.39562727  0.76885021    -0.11500
H1315       H  0.34712906  0.39759048  0.74837854     0.08200
H1316       H  0.28495277  0.35130119  0.82595113     0.05700
H1317       H  0.27048179  0.40341426  0.76043767     0.05600
C1318       C  0.30886207  0.44546720  0.96738283     0.02600
C1319       C  0.32993798  0.47666125  0.96008318    -0.13500
C1320       C  0.32235979  0.49053614  0.93693044     0.00100
C1321       C  0.29375416  0.47335505  0.92113605    -0.12100
C1322       C  0.27266048  0.44255287  0.92796582     0.02600
C1323       C  0.28026152  0.42862501  0.95087460    -0.11500
H1324       H  0.35198327  0.99054951  0.97250574     0.08200
H1325       H  0.28807105  0.48367339  0.90292402     0.05700
H1326       H  0.26354002  0.40446266  0.95608434     0.05600
C1327       C  0.16143993  0.45055940  0.78631337     0.02600
C1328       C  0.13912597  0.43999606  0.76081445    -0.13500
C1329       C  0.13335964  0.46037431  0.74621484     0.00100
C1330       C  0.15071334  0.49139321  0.75752021    -0.12100
C1331       C  0.17233261  0.00167778  0.78271790     0.02600
C1332       C  0.17797351  0.48158958  0.79677074    -0.11500
H1333       H  0.12635613  0.41594388  0.75227688     0.08200
H1334       H  0.14690686  0.00748671  0.74677949     0.05700
H1335       H  0.19357080  0.48953355  0.81739784     0.05600
C1336       C  0.34172426  0.14782407  0.83606059     0.02600
C1337       C  0.31011407  0.13128314  0.84014205    -0.13500
C1338       C  0.29717337  0.14705035  0.84851914     0.00100
C1339       C  0.31568869  0.17941968  0.85273557    -0.12100
C1340       C  0.34707342  0.19605226  0.84699183     0.02600
C1341       C  0.36005916  0.18036083  0.83835542    -0.11500
H1342       H  0.29563682  0.10614068  0.83760994     0.08200
H1343       H  0.30547229  0.19170525  0.85877438     0.05700
H1344       H  0.38454785  0.19350425  0.83475931     0.05600
C1345       C  0.00646899  0.98375855  0.11961469     0.02600
C1346       C  0.02181062  0.51582767  0.11532853    -0.13500
C1347       C  0.00624286  0.52825352  0.10508567     0.00100
C1348       C  0.47412910  0.50830474  0.09976457    -0.12100
C1349       C  0.45745634  0.97650648  0.10586833     0.02600
C1350       C  0.47387802  0.96408267  0.11562087    -0.11500
H1351       H  0.04654521  0.53112802  0.11857744     0.08200
H1352       H  0.46204716  0.51833445  0.09302697     0.05700
H1353       H  0.46169219  0.93942697  0.11913546     0.05600
C1354       C  0.12993687  0.85432634  0.08726812     0.02600
C1355       C  0.16192935  0.87525355  0.09162017    -0.13500
C1356       C  0.17890820  0.86566113  0.10581078     0.00100
C1357       C  0.16394502  0.83488628  0.11496213    -0.12100
C1358       C  0.13248420  0.81356820  0.10872300     0.02600
C1359       C  0.11550672  0.82346951  0.09554799    -0.11500
H1360       H  0.17360272  0.89910531  0.08463033     0.08200
H1361       H  0.17722856  0.82686908  0.12398172     0.05700
H1362       H  0.09104036  0.80692004  0.09127148     0.05600
C1363       C  0.35416265  0.81446457  0.48705313     0.02600
C1364       C  0.34890997  0.83510418  0.00218682    -0.13500
C1365       C  0.33297932  0.82742641  0.03088095     0.00100
C1366       C  0.32053139  0.79806672  0.04365834    -0.12100
C1367       C  0.32481292  0.77687325  0.02853879     0.02600
C1368       C  0.34121077  0.78502417  0.99987568    -0.11500
H1369       H  0.35989754  0.85826201  0.49313860     0.08200
H1370       H  0.30965624  0.79255453  0.06686887     0.05700
H1371       H  0.34604016  0.76919088  0.48943406     0.05600
Zr1372     Zr  0.10452303  0.92096183  0.05073907     2.17500
O1373       O  0.13775173  0.92658164  0.00709065    -0.51800
O1374       O  0.07136528  0.88423793  0.00652041    -0.75000
O1375       O  0.12430473  0.89062487  0.06228787    -0.81800
O1376       O  0.10732093  0.98702772  0.02861716    -0.83600
O1377       O  0.08416734  0.85169078  0.08839175    -0.79200
O1378       O  0.14070784  0.97487702  0.03244183    -0.90800
O1379       O  0.02249118  0.86384545  0.02069815    -0.76800
O1380       O  0.05749351  0.87808695  0.07196682    -0.86300
O1381       O  0.06804415  0.93365541  0.04663294    -0.86000
O1382       O  0.11508104  0.91659496  0.10675722    -0.72700
O1383       O  0.12479808  0.96795555  0.08297435    -0.84900
Zr1384     Zr  0.05544039  0.93478862  0.15887537     2.26400
Zr1385     Zr  0.06707829  0.87401002  0.12748206     2.06300
Zr1386     Zr  0.08730848  0.97893578  0.08206857     2.10000
Zr1387     Zr  0.02269716  0.89197924  0.06913780     1.78800
O1388       O  0.13008658  0.53053001  0.10195466    -0.93700
O1389       O  0.48169815  0.83799158  0.07641865    -0.41500
O1390       O  0.04666732  0.93567895  0.10395235    -0.78100
O1391       O  0.03138141  0.88771631  0.12432171    -0.96800
O1392       O  0.09023359  0.92080658  0.15906287    -0.88500
O1393       O  0.10090479  0.97828581  0.13709524    -0.92900
C1394       C  0.04222879  0.86507035  0.00176522     1.00800
C1395       C  0.13415456  0.99398915  0.02489945     1.13700
C1396       C  0.11140217  0.86545919  0.07767231     1.04500
O1397       O  0.03772933  0.81772896  0.12965593    -0.95100
O1398       O  0.02522305  0.85040461  0.16709277    -0.90800
O1399       O  0.01873869  0.88729761  0.18565082    -0.84000
C1400       C  0.01093270  0.85925831  0.18398078     1.11200
O1401       O  0.18413380  0.99470705  0.10885559    -0.97100
Zr1402     Zr  0.13602483  0.96377845  0.13709989     1.88900
O1403       O  0.09367198  0.95275669  0.20703704    -0.73700
O1404       O  0.09974500  0.87313713  0.16770412    -0.53000
O1405       O  0.17600227  0.95629704  0.14927402    -0.97700
O1406       O  0.16187393  0.51546987  0.16379479    -0.54900
O1407       O  0.13247268  0.94975740  0.19152160    -0.74200
C1408       C  0.11795579  0.95306655  0.21342929     0.98100
O1409       O  0.53889477  0.95082287  0.20545425    -0.63100
O1410       O  0.08205926  0.01625659  0.05521286    -0.57900
O1411       O  0.02688936  0.95795103  0.14546468    -0.94500
O1412       O  0.04439132  0.98026443  0.09717169    -0.93000
O1413       O  0.00530398  0.91236453  0.02983669    -0.93300
O1414       O  0.47329263  0.88328120  0.07781806    -0.92100
C1415       C  0.02650642  0.97249655  0.12108495     1.16900
H1416       H  0.06382830  0.93558669  0.02455699     0.32900
H1417       H  0.01046966  0.87193206  0.12936061     0.43700
H1418       H  0.10765717  0.99706399  0.14949882     0.37300
H1419       H  0.13094327  0.91357641  0.11091114     0.33700
H1420       H  0.47183018  0.82975987  0.05483144     0.25500
H1421       H  0.08565789  0.85416075  0.17969143     0.31500
H1422       H  0.18894327  0.97219176  0.16642016     0.37400
H1423       H  0.49455412  0.89554921  0.01251788     0.31800
H1424       H  0.10279318  0.03243849  0.04766697     0.30700
H1425       H  0.14863936  0.53149519  0.09641707     0.32400
H1426       H  0.18247217  0.52113871  0.16995634     0.31400
H1427       H  0.47417577  0.88986812  0.10061945     0.35400
H1428       H  0.54801878  0.97321320  0.20351707     0.28100
H1429       H  0.12999192  0.90514359  0.99974439     0.32300
H1430       H  0.18841925  0.01560885  0.10799873     0.35200
H1431       H  0.06989502  0.00527214  0.03524024     0.27800
H1432       H  0.51649912  0.94016819  0.20267235     0.40700
H1433       H  0.02015825  0.80986981  0.11454178     0.30700
H1434       H  0.99234308  0.82703635  0.07858726     0.38300
H1435       H  0.15156779  0.51227869  0.18456535     0.30200
H1436       H  0.11237452  0.86829363  0.15519733     0.30200
H1437       H  0.15780831  0.93477650  0.01767763     0.30500
C1438       C  0.16881278  0.57250034  0.48977292     0.02600
C1439       C  0.19584780  0.59074800  0.50834689    -0.13500
C1440       C  0.20401157  0.57768163  0.03182393     0.00100
C1441       C  0.18524713  0.54519361  0.03512050    -0.12100
C1442       C  0.15766688  0.52636771  0.01674066     0.02600
C1443       C  0.14986276  0.54041255  0.49425021    -0.11500
H1444       H  0.21041809  0.61547422  0.50459248     0.08200
H1445       H  0.19088106  0.53492745  0.05338294     0.05700
H1446       H  0.12864475  0.52606006  0.48030639     0.05600
C1447       C  0.43249947  0.82436728  0.21964288     0.02600
C1448       C  0.41706199  0.79406389  0.20530489    -0.13500
C1449       C  0.43246787  0.78412356  0.18690050     0.00100
C1450       C  0.46418234  0.80482475  0.18351518    -0.12100
C1451       C  0.48028748  0.83550628  0.19667658     0.02600
C1452       C  0.46428358  0.84476866  0.21525611    -0.11500
H1453       H  0.39233943  0.77852509  0.20667489     0.08200
H1454       H  0.47541450  0.79834259  0.16689660     0.05700
H1455       H  0.47642437  0.86824168  0.22545481     0.05600
Zr1456     Zr  0.37684798  0.68121271  0.12839344     2.17500
O1457       O  0.41991571  0.68983138  0.15981967    -0.51800
O1458       O  0.40817892  0.67536892  0.08886793    -0.75000
O1459       O  0.36109405  0.63320381  0.15532889    -0.81800
O1460       O  0.40277996  0.76768554  0.14074409    -0.83600
O1461       O  0.31454430  0.59475770  0.13335824    -0.79200
O1462       O  0.40863535  0.73193175  0.16174649    -0.90800
O1463       O  0.38563412  0.66228123  0.03907984    -0.76800
O1464       O  0.34504275  0.64607793  0.08464189    -0.86300
O1465       O  0.38308126  0.71179468  0.08376469    -0.86000
O1466       O  0.32443878  0.65047605  0.14670965    -0.72700
O1467       O  0.35870980  0.71144433  0.14472113    -0.84900
Zr1468     Zr  0.28069668  0.67730525  0.07840828     2.26400
Zr1469     Zr  0.29305327  0.61606835  0.10176127     2.06300
Zr1470     Zr  0.36354904  0.74106164  0.10041155     2.10000
Zr1471     Zr  0.35058220  0.67680354  0.04084796     1.78800
O1472       O  0.36317839  0.78289902  0.12650373    -0.93700
O1473       O  0.33038571  0.63307271  0.00223429    -0.41500
O1474       O  0.33148000  0.70629993  0.05748342    -0.78100
O1475       O  0.29869475  0.64701931  0.05753278    -0.96800
O1476       O  0.27693784  0.64707611  0.12153083    -0.90100
O1477       O  0.31254792  0.71314050  0.12094966    -0.92900
C1478       C  0.40589551  0.66628518  0.05901858     1.00800
C1479       C  0.41420716  0.75952299  0.16143932     1.13700
C1480       C  0.33795714  0.60453762  0.15194679     1.04500
O1481       O  0.29002173  0.57550312  0.06838714    -0.95100
O1482       O  0.24437467  0.58938128  0.06978129    -0.90800
O1483       O  0.24187427  0.62817766  0.05189867    -0.84000
C1484       C  0.23164656  0.59940386  0.05282684     1.11200
O1485       O  0.34360640  0.70396780  0.21095568    -0.97100
Zr1486     Zr  0.30845228  0.68231129  0.16438971     1.88900
O1487       O  0.24031891  0.66364736  0.11822185    -0.73700
O1488       O  0.25209868  0.57965422  0.13678702    -0.53000
O1489       O  0.28850822  0.64481058  0.20691361    -0.97700
O1490       O  0.30476989  0.72240956  0.18972565    -0.54900
O1491       O  0.25464222  0.65686108  0.16670088    -0.74200
C1492       C  0.23462049  0.65413151  0.14739754     0.98100
O1493       O  0.24055619  0.67592330  0.04831385    -0.63100
O1494       O  0.40924337  0.77743785  0.07049518    -0.57900
O1495       O  0.29739563  0.72649170  0.05198522    -0.94500
O1496       O  0.34842091  0.76213969  0.06160797    -0.93000
O1497       O  0.39412036  0.72208865  0.01602703    -0.93300
O1498       O  0.33794429  0.68548890  0.98781841    -0.92100
C1499       C  0.32297981  0.75325713  0.04831918     1.16900
H1500       H  0.40431416  0.72484980  0.07782923     0.32900
H1501       H  0.28772792  0.63442295  0.03846110     0.43700
H1502       H  0.30654481  0.72679724  0.12665184     0.37300
H1503       H  0.32159692  0.63925173  0.16578480     0.33700
H1504       H  0.34745493  0.63921959  0.98754890     0.25500
H1505       H  0.24936416  0.55964141  0.13218598     0.31500
H1506       H  0.27727823  0.65027120  0.22113869     0.37400
H1507       H  0.40283146  0.71367104  0.00187736     0.31800
H1508       H  0.41205455  0.79763344  0.07365563     0.30700
H1509       H  0.37939830  0.80193862  0.11586961     0.32400
H1510       H  0.29925124  0.71620912  0.21227416     0.31400
H1511       H  0.31692064  0.68006706  0.98977814     0.35400
H1512       H  0.23979227  0.69297675  0.05767266     0.28100
H1513       H  0.42257206  0.67362547  0.15187408     0.32300
H1514       H  0.33073353  0.69885998  0.23010178     0.35200
H1515       H  0.42647437  0.78000848  0.08286273     0.27800
H1516       H  0.24802792  0.68197954  0.02615634     0.40700
H1517       H  0.31135028  0.58160135  0.06755336     0.30700
H1518       H  0.32824901  0.61629420  0.01478624     0.38300
H1519       H  0.28607238  0.71907827  0.18009850     0.30200
H1520       H  0.26129940  0.58614676  0.15880681     0.30200
H1521       H  0.41222497  0.68387168  0.18192742     0.30500
Zr1522     Zr  0.35493681  0.92789981  0.05788883     2.17500
O1523       O  0.38957537  0.94146272  0.01315631    -0.51800
O1524       O  0.34623766  0.87866740  0.03993935    -0.75000
O1525       O  0.40897301  0.95353622  0.07781188    -0.81800
O1526       O  0.29041875  0.90753575  0.00603525    -0.83600
O1527       O  0.41018832  0.95150973  0.13249431    -0.79200
O1528       O  0.34051420  0.94486015  0.00961489    -0.90800
O1529       O  0.31129246  0.83975712  0.07125788    -0.76800
O1530       O  0.34586214  0.90064053  0.10641590    -0.86300
O1531       O  0.30138114  0.88628041  0.05892705    -0.86000
O1532       O  0.37015684  0.96536354  0.10196681    -0.72700
O1533       O  0.32757973  0.95144069  0.05725260    -0.84900
Zr1534     Zr  0.28130408  0.92143748  0.15095948     2.26400
Zr1535     Zr  0.36034783  0.93736889  0.15049548     2.06300
Zr1536     Zr  0.27427694  0.90982018  0.05925100     2.10000
Zr1537     Zr  0.29238806  0.86016690  0.10750569     1.78800
O1538       O  0.26587451  0.94385357  0.03028736    -0.93700
O1539       O  0.31045479  0.83640409  0.14104485    -0.41500
O1540       O  0.26487071  0.88307811  0.10799082    -0.78100
O1541       O  0.30691228  0.89576586  0.15149057    -0.96800
O1542       O  0.33460627  0.96234256  0.14980977    -0.90100
O1543       O  0.28829335  0.94712593  0.10200321    -0.92900
C1544       C  0.33015927  0.85023372  0.04839443     1.00800
C1545       C  0.31414855  0.93152523  0.99489885     1.13700
C1546       C  0.42322009  0.95828054  0.10507517     1.04500
O1547       O  0.37853075  0.91121136  0.17936377    -0.95100
O1548       O  0.34097529  0.92592576  0.20555691    -0.90800
O1549       O  0.29171547  0.91128320  0.20410789    -0.84000
C1550       C  0.31495558  0.91517403  0.21875278     1.11200
O1551       O  0.38628975  0.52760334  0.07119215    -0.97100
Zr1552     Zr  0.34190588  0.98784010  0.10075719     1.88900
O1553       O  0.29707654  0.97269193  0.17135362    -0.73700
O1554       O  0.39555876  0.98675841  0.17952663    -0.53000
O1555       O  0.37818459  0.52827103  0.13955335    -0.97700
O1556       O  0.33204990  0.51471872  0.06153299    -0.54900
O1557       O  0.31033625  0.00017332  0.12691349    -0.74200
C1558       C  0.30590607  0.99755197  0.15696500     0.98100
O1559       O  0.24524269  0.91128110  0.19326899    -0.63100
O1560       O  0.23150867  0.86377669  0.03074675    -0.57900
O1561       O  0.22742807  0.89131882  0.13240340    -0.94500
O1562       O  0.22465268  0.89338957  0.07800190    -0.93000
O1563       O  0.24648015  0.81891825  0.07788712    -0.93300
O1564       O  0.25352960  0.82052562  0.14202346    -0.92100
C1565       C  0.21250318  0.88543391  0.10565392     1.16900
H1566       H  0.29480948  0.87201738  0.04051239     0.32900
H1567       H  0.30194995  0.88239230  0.16922447     0.43700
H1568       H  0.27468443  0.95356513  0.10032240     0.37300
H1569       H  0.39141918  0.98266274  0.10122358     0.33700
H1570       H  0.30100459  0.81532226  0.13123019     0.25500
H1571       H  0.40874518  0.98325321  0.19260921     0.31500
H1572       H  0.37380663  0.54413878  0.13920830     0.37400
H1573       H  0.24830472  0.80125505  0.07653467     0.31800
H1574       H  0.22904893  0.87140464  0.01033452     0.30700
H1575       H  0.24937270  0.92996562  0.01426427     0.32400
H1576       H  0.33590006  0.53322881  0.07354290     0.31400
H1577       H  0.24339601  0.82979308  0.15153992     0.35400
H1578       H  0.23408562  0.92000990  0.18604137     0.28100
H1579       H  0.40069227  0.93201776  0.01764006     0.32300
H1580       H  0.39158965  0.54776888  0.08028269     0.35200
H1581       H  0.23935664  0.85138198  0.02423381     0.27800
H1582       H  0.22979379  0.88849583  0.19285487     0.40700
H1583       H  0.36009775  0.88978252  0.18162035     0.30700
H1584       H  0.33250944  0.84756528  0.13638786     0.38300
H1585       H  0.30914095  0.00023675  0.05716445     0.30200
H1586       H  0.40921635  0.00100749  0.16283009     0.30200
H1587       H  0.40521941  0.96413123  0.01595697     0.30500
C1588       C  0.33673369  0.58056849  0.17104200     0.02600
C1589       C  0.31827833  0.54982853  0.15924930    -0.13500
C1590       C  0.31631121  0.52601688  0.17555738     0.00100
C1591       C  0.33117275  0.53240608  0.20551672    -0.12100
C1592       C  0.34959262  0.56295905  0.21833669     0.02600
C1593       C  0.35252038  0.58718119  0.20068318    -0.11500
H1594       H  0.30682107  0.54452745  0.13590934     0.08200
H1595       H  0.33010633  0.51395168  0.21771892     0.05700
H1596       H  0.36665431  0.61098467  0.21004798     0.05600
C1597       C  0.16745377  0.61081358  0.20408844     0.02600
C1598       C  0.19618955  0.62361894  0.18992903    -0.13500
C1599       C  0.20327448  0.63833057  0.16019258     0.00100
C1600       C  0.18083729  0.63904254  0.14410328    -0.12100
C1601       C  0.15225567  0.62677000  0.15810475     0.02600
C1602       C  0.14545197  0.61214166  0.18762422    -0.11500
H1603       H  0.21359298  0.62316463  0.20273068     0.08200
H1604       H  0.18641458  0.65103151  0.12171132     0.05700
H1605       H  0.12365085  0.60340958  0.19864984     0.05600
Zr1606     Zr  0.06701516  0.63170916  0.14956505     2.17500
O1607       O  0.05011005  0.59597577  0.19353789    -0.51800
O1608       O  0.11081651  0.63111318  0.16214066    -0.75000
O1609       O  0.03547416  0.57778667  0.12997127    -0.81800
O1610       O  0.09382937  0.69697910  0.20727375    -0.83600
O1611       O  0.02638734  0.57413357  0.07581288    -0.79200
O1612       O  0.05423867  0.64691716  0.19998194    -0.90800
O1613       O  0.13747906  0.64469579  0.11639626    -0.76800
O1614       O  0.08911208  0.63516519  0.09857128    -0.86300
O1615       O  0.11417291  0.68257098  0.14967270    -0.86000
O1616       O  0.02978501  0.62245986  0.10936741    -0.72700
O1617       O  0.05364329  0.66753367  0.15578337    -0.84900
Zr1618     Zr  0.08354719  0.71225442  0.06442424     2.26400
Zr1619     Zr  0.05321056  0.62753789  0.05802766     2.06300
Zr1620     Zr  0.10034641  0.71824310  0.15454774     2.10000
Zr1621     Zr  0.13535145  0.68607176  0.09849090     1.78800
O1622       O  0.07770911  0.73895762  0.18726382    -0.93700
O1623       O  0.15454458  0.67268575  0.05254422    -0.41500
O1624       O  0.12227078  0.72246903  0.10313550    -0.78100
O1625       O  0.10019650  0.67870813  0.05837372    -0.96800
O1626       O  0.03733336  0.66129035  0.06534794    -0.90100
O1627       O  0.06279668  0.70968418  0.11609959    -0.92900
C1628       C  0.13187063  0.63395780  0.14451918     1.00800
C1629       C  0.06893448  0.67266573  0.21677769     1.13700
C1630       C  0.02361466  0.56219407  0.10328013     1.04500
O1631       O  0.07208786  0.60128691  0.02855428    -0.95100
O1632       O  0.06826922  0.64966427  0.00391745    -0.90800
O1633       O  0.08675907  0.70083721  0.00848679    -0.84000
C1634       C  0.08075233  0.67681609  0.99213786     1.11200
O1635       O  0.47618864  0.61787873  0.15041799    -0.97100
Zr1636     Zr  0.01669541  0.65857092  0.11721172     1.88900
O1637       O  0.03500140  0.70053437  0.04470286    -0.73700
O1638       O  0.00546902  0.59996111  0.02656507    -0.53000
O1639       O  0.46859840  0.62369533  0.08670538    -0.97700
O1640       O  0.50000502  0.67716892  0.16109358    -0.54900
O1641       O  0.01251864  0.69573420  0.09121023    -0.74200
C1642       C  0.01188688  0.69449465  0.06076585     0.98100
O1643       O  0.11295291  0.75351758  0.02642368    -0.63100
O1644       O  0.15030713  0.75364028  0.18100585    -0.57900
O1645       O  0.10264797  0.76365896  0.08557139    -0.94500
O1646       O  0.12292016  0.77016485  0.13586704    -0.93000
O1647       O  0.17917236  0.71380949  0.13589562    -0.93300
O1648       O  0.18025985  0.72962778  0.07333630    -0.92100
C1649       C  0.11830520  0.78033296  0.11051143     1.16900
H1650       H  0.12789585  0.68613374  0.16718526     0.32900
H1651       H  0.11195125  0.68259246  0.03930636     0.43700
H1652       H  0.05925669  0.72552754  0.12000585     0.37300
H1653       H  0.01063162  0.60234712  0.11099373     0.33700
H1654       H  0.17155052  0.67235120  0.06148640     0.25500
H1655       H  0.00402727  0.58187744  0.01647028     0.31500
H1656       H  0.45429140  0.62813012  0.09576978     0.37400
H1657       H  0.19233888  0.70705821  0.12919225     0.31800
H1658       H  0.15330778  0.74045032  0.19457620     0.30700
H1659       H  0.09422344  0.75396007  0.20273709     0.32400
H1660       H  0.51005178  0.69943248  0.15711286     0.31400
H1661       H  0.17212284  0.73872174  0.06001852     0.35400
H1662       H  0.10300295  0.76455081  0.02510125     0.28100
H1663       H  0.05716601  0.58261963  0.18830707     0.32300
H1664       H  0.48728073  0.61404755  0.16646021     0.35200
H1665       H  0.16516716  0.75986479  0.16353191     0.27800
H1666       H  0.13326933  0.76863184  0.03686037     0.40700
H1667       H  0.08258338  0.59716598  0.04506911     0.30700
H1668       H  0.13815287  0.65063578  0.04705802     0.38300
H1669       H  0.01054777  0.67686128  0.18053956     0.30200
H1670       H  0.98923288  0.59095599  0.04281764     0.30200
H1671       H  0.52747615  0.58156783  0.19131270     0.30500
C1672       C  0.42875738  0.66136662  0.04593246     0.02600
C1673       C  0.45834795  0.67881271  0.05930158    -0.13500
C1674       C  0.48161276  0.67819360  0.04479864     0.00100
C1675       C  0.47513631  0.65871469  0.01764884    -0.12100
C1676       C  0.44578923  0.64045336  0.50436715     0.02600
C1677       C  0.42254205  0.64225158  0.01794909    -0.11500
H1678       H  0.46363477  0.69373679  0.08053077     0.08200
H1679       H  0.49352536  0.65890907  0.50652106     0.05700
H1680       H  0.40041023  0.63035364  0.50616519     0.05600
C1681       C  0.47810834  0.52946625  0.37388665     0.02600
C1682       C  0.45660899  0.99679073  0.36888845    -0.13500
C1683       C  0.46631443  0.97833493  0.35672596     0.00100
C1684       C  0.99793961  0.49318063  0.35045985    -0.12100
C1685       C  0.01913453  0.52513413  0.35706096     0.02600
C1686       C  0.00916033  0.54297994  0.36857733    -0.11500
H1687       H  0.43249207  0.98615473  0.37280097     0.08200
H1688       H  0.00603696  0.97941919  0.34262997     0.05700
H1689       H  0.02567909  0.56787091  0.37240799     0.05600
Zr1690     Zr  0.12103451  0.58279781  0.39867228     2.17500
O1691       O  0.08109981  0.56294909  0.43878581    -0.51800
O1692       O  0.11906390  0.62714080  0.41416779    -0.75000
O1693       O  0.13576756  0.57252756  0.45034032    -0.81800
O1694       O  0.06354959  0.54692034  0.32573082    -0.83600
O1695       O  0.18570033  0.61027526  0.45025945    -0.79200
O1696       O  0.06782006  0.54953394  0.38056635    -0.90800
O1697       O  0.15191954  0.66822890  0.38405802    -0.76800
O1698       O  0.17288259  0.62757838  0.39906523    -0.86300
O1699       O  0.12655921  0.60968920  0.35087015    -0.86000
O1700       O  0.15103399  0.56139759  0.39745072    -0.72700
O1701       O  0.10832019  0.54740943  0.35310922    -0.84900
Zr1702     Zr  0.19842810  0.60029040  0.30624725     2.26400
Zr1703     Zr  0.20273631  0.60674879  0.39755603     2.06300
Zr1704     Zr  0.11549714  0.57533218  0.30539662     2.10000
Zr1705     Zr  0.17846131  0.65380322  0.35091855     1.78800
O1706       O  0.08347752  0.53057762  0.26870426    -0.93700
O1707       O  0.21897856  0.69846091  0.38313720    -0.41500
O1708       O  0.16757212  0.61977811  0.30581998    -0.78100
O1709       O  0.21031555  0.63585849  0.35082074    -0.96800
O1710       O  0.19175717  0.57196243  0.35310208    -0.90100
O1711       O  0.14597368  0.55569055  0.30387972    -0.92900
C1712       C  0.13119997  0.65502821  0.40506303     1.00800
C1713       C  0.05220774  0.54083410  0.35402260     1.13700
C1714       C  0.16278678  0.58647856  0.46295390     1.04500
O1715       O  0.24484789  0.64257969  0.43478865    -0.95100
O1716       O  0.25377201  0.63245697  0.37702356    -0.90800
O1717       O  0.24817542  0.61495848  0.32491037    -0.84000
C1718       C  0.26427369  0.63002470  0.35031761     1.11200
O1719       O  0.11784084  0.99520010  0.39731849    -0.97100
Zr1720     Zr  0.13946579  0.52833737  0.35106991     1.88900
O1721       O  0.19356395  0.55568066  0.28143793    -0.73700
O1722       O  0.20944945  0.56849812  0.41897245    -0.53000
O1723       O  0.13711297  0.48127016  0.35820586    -0.97700
O1724       O  0.09571554  0.99579947  0.31445360    -0.54900
O1725       O  0.18421297  0.53448877  0.32869040    -0.74200
C1726       C  0.18570592  0.53256379  0.29828304     0.98100
O1727       O  0.24077394  0.64108978  0.27499455    -0.63100
O1728       O  0.09439003  0.60224791  0.28456057    -0.57900
O1729       O  0.18493056  0.60245822  0.25179005    -0.94500
O1730       O  0.13720159  0.59185853  0.25158169    -0.93000
O1731       O  0.15796069  0.67303844  0.31410116    -0.93300
O1732       O  0.21787522  0.69559594  0.31863915    -0.92100
C1733       C  0.16246379  0.60040944  0.23775934     1.16900
H1734       H  0.11253804  0.61567449  0.35055719     0.32900
H1735       H  0.23106535  0.65412473  0.34953638     0.43700
H1736       H  0.14110324  0.54305919  0.28439010     0.37300
H1737       H  0.14858988  0.54866267  0.41498331     0.33700
H1738       H  0.21333118  0.71336851  0.38373634     0.25500
H1739       H  0.22835064  0.57297384  0.40894929     0.31500
H1740       H  0.12316348  0.96787955  0.33270627     0.37400
H1741       H  0.16315898  0.69275938  0.32442131     0.31800
H1742       H  0.08155044  0.58930309  0.26562566     0.30700
H1743       H  0.07410719  0.53722392  0.25362847     0.32400
H1744       H  0.08110482  0.97721272  0.32671731     0.31400
H1745       H  0.21782694  0.68507330  0.29844239     0.35400
H1746       H  0.23318054  0.65243756  0.26524099     0.28100
H1747       H  0.09058436  0.57754477  0.45774844     0.32300
H1748       H  0.09814264  0.99252733  0.40101673     0.35200
H1749       H  0.07953366  0.59967435  0.30070107     0.27800
H1750       H  0.25645902  0.65651284  0.29090949     0.40700
H1751       H  0.24886596  0.66307542  0.43107235     0.30700
H1752       H  0.21591930  0.69113376  0.40538604     0.38300
H1753       H  0.10570983  0.48404982  0.29896590     0.30200
H1754       H  0.21530953  0.57501486  0.44193227     0.30200
H1755       H  0.07742704  0.54332171  0.44586985     0.30500
C1756       C  0.09289345  0.68228675  0.45894850     0.02600
C1757       C  0.10142765  0.70966937  0.44354879    -0.13500
C1758       C  0.12002422  0.71963586  0.41622973     0.00100
C1759       C  0.12967718  0.70155287  0.40426604    -0.12100
C1760       C  0.12057921  0.67355510  0.41860631     0.02600
C1761       C  0.10190689  0.66395573  0.44565172    -0.11500
H1762       H  0.09455635  0.72394279  0.45362615     0.08200
H1763       H  0.14375976  0.70903948  0.38312639     0.05700
H1764       H  0.09601206  0.64322738  0.45751105     0.05600
C1765       C  0.05418160  0.67648075  0.24476210     0.02600
C1766       C  0.07058233  0.70425472  0.26346907    -0.13500
C1767       C  0.05537795  0.71310169  0.28334298     0.00100
C1768       C  0.02372414  0.69396369  0.28496345    -0.12100
C1769       C  0.00718097  0.66534179  0.26780937     0.02600
C1770       C  0.02235542  0.65628554  0.24823877    -0.11500
H1771       H  0.09521203  0.72003977  0.26115751     0.08200
H1772       H  0.01214348  0.70134453  0.29973314     0.05700
H1773       H  0.50935813  0.63421689  0.23468226     0.05600
Zr1774     Zr  0.41191576  0.62551332  0.30732012     2.17500
O1775       O  0.41544181  0.66565457  0.27558673    -0.51800
O1776       O  0.38222534  0.59802004  0.25971215    -0.75000
O1777       O  0.45899642  0.65470183  0.27827659    -0.81800
O1778       O  0.34132042  0.60360010  0.34377265    -0.83600
O1779       O  0.46408246  0.61621557  0.28024867    -0.79200
O1780       O  0.38337769  0.64566452  0.32341876    -0.90800
O1781       O  0.36297582  0.54738451  0.26551727    -0.76800
O1782       O  0.42435357  0.58870434  0.30062292    -0.86300
O1783       O  0.36735064  0.57684749  0.32323443    -0.86000
O1784       O  0.45743581  0.64564496  0.34036777    -0.72700
O1785       O  0.40342829  0.63315967  0.36233254    -0.84900
Zr1786     Zr  0.42090539  0.57104148  0.40872169     2.26400
Zr1787     Zr  0.46812188  0.60708175  0.33578166     2.06300
Zr1788     Zr  0.36144069  0.58339379  0.37919747     2.10000
Zr1789     Zr  0.38065428  0.54155099  0.31805604     1.78800
O1790       O  0.35487327  0.61091560  0.42296216    -0.93700
O1791       O  0.40139442  0.52226550  0.27988554    -0.41500
O1792       O  0.38000109  0.55399025  0.37222401    -0.78100
O1793       O  0.42397468  0.55885654  0.35268626    -0.96800
O1794       O  0.46392200  0.61879043  0.39104087    -0.90100
O1795       O  0.40519947  0.60512672  0.41305521    -0.92900
C1796       C  0.36606277  0.56972196  0.24972062     1.00800
C1797       C  0.35593573  0.63104061  0.33323937     1.13700
C1798       C  0.47474831  0.64389707  0.27332912     1.04500
O1799       O  0.50511545  0.60365571  0.30526853    -0.95100
O1800       O  0.47823906  0.57054666  0.35425854    -0.90800
O1801       O  0.44970060  0.54762310  0.39826881    -0.84000
C1802       C  0.46853916  0.55086232  0.37656138     1.11200
O1803       O  0.47609898  0.70570784  0.37416886    -0.97100
Zr1804     Zr  0.44835204  0.65343501  0.39462671     1.88900
O1805       O  0.43687786  0.60367076  0.46078785    -0.73700
O1806       O  0.01915931  0.65267032  0.35031552    -0.53000
O1807       O  0.50062514  0.68116970  0.41592875    -0.97700
O1808       O  0.42929444  0.68353733  0.41363867    -0.54900
O1809       O  0.44701828  0.65091600  0.45124839    -0.74200
C1810       C  0.44307850  0.63055874  0.47018946     0.98100
O1811       O  0.42737484  0.54732479  0.45486524    -0.63100
O1812       O  0.30566642  0.55212779  0.38199102    -0.57900
O1813       O  0.37341743  0.53040522  0.42926021    -0.94500
O1814       O  0.33731818  0.53610091  0.40960470    -0.93000
O1815       O  0.32542519  0.50366729  0.32076235    -0.93300
O1816       O  0.36415338  0.98833621  0.32512815    -0.92100
C1817       C  0.34583447  0.52151999  0.42538001     1.16900
H1818       H  0.34895456  0.56985626  0.31092158     0.32900
H1819       H  0.42419460  0.54087632  0.34918678     0.43700
H1820       H  0.39773266  0.60566329  0.43397979     0.37300
H1821       H  0.47457315  0.66552478  0.33361442     0.33700
H1822       H  0.40710561  0.53528934  0.26089275     0.25500
H1823       H  0.03081936  0.65906788  0.33017485     0.31500
H1824       H  0.50220800  0.69559085  0.43302022     0.37400
H1825       H  0.32015834  0.50708586  0.34255925     0.31800
H1826       H  0.30056657  0.56709555  0.38727104     0.30700
H1827       H  0.35148897  0.62519208  0.41209210     0.32400
H1828       H  0.44263537  0.69624222  0.43242121     0.31400
H1829       H  0.36608315  0.98716576  0.34865476     0.35400
H1830       H  0.41924188  0.02537114  0.44749692     0.28100
H1831       H  0.41896392  0.66171462  0.25314256     0.32300
H1832       H  0.48492352  0.72005199  0.39336860     0.35200
H1833       H  0.29810605  0.54483277  0.35950928     0.27800
H1834       H  0.44974059  0.55804510  0.45819199     0.40700
H1835       H  0.49274683  0.58725284  0.28834498     0.30700
H1836       H  0.42120115  0.52846506  0.28959077     0.38300
H1837       H  0.40923729  0.66815135  0.42306842     0.30200
H1838       H  0.01686834  0.66959339  0.35595768     0.30200
H1839       H  0.43477326  0.68541444  0.28277442     0.30500
C1840       C  0.03674070  0.81780672  0.42525387     0.02600
C1841       C  0.04797764  0.83587494  0.45467180    -0.13500
C1842       C  0.02997463  0.84310732  0.47244170     0.00100
C1843       C  0.50071082  0.83241916  0.45997150    -0.12100
C1844       C  0.49034510  0.81627858  0.43002632     0.02600
C1845       C  0.00783231  0.80789084  0.41343644    -0.11500
H1846       H  0.07129117  0.84568903  0.46266305     0.08200
H1847       H  0.48743769  0.83960876  0.47154630     0.05700
H1848       H  0.00074823  0.79761628  0.38920870     0.05600
Zr1849     Zr  0.20138886  0.89550666  0.33700234     2.17500
O1850       O  0.24307894  0.93959326  0.30875479    -0.51800
O1851       O  0.23944256  0.92750312  0.38130713    -0.75000
O1852       O  0.18653307  0.92894273  0.31158195    -0.81800
O1853       O  0.23161422  0.84372623  0.32955675    -0.83600
O1854       O  0.13607681  0.90843742  0.31937871    -0.79200
O1855       O  0.23784778  0.88726005  0.31100590    -0.90800
O1856       O  0.22128641  0.90383413  0.42889674    -0.76800
O1857       O  0.16935767  0.89315585  0.37855413    -0.86300
O1858       O  0.20158642  0.86439039  0.37799913    -0.86000
O1859       O  0.15120445  0.86831548  0.31223500    -0.72700
O1860       O  0.18284154  0.84459599  0.31421154    -0.84900
Zr1861     Zr  0.09846732  0.78735666  0.37277559     2.26400
Zr1862     Zr  0.11900838  0.86631945  0.35393643     2.06300
Zr1863     Zr  0.18177181  0.81375735  0.35643649     2.10000
Zr1864     Zr  0.16962786  0.86208931  0.41926083     1.78800
O1865       O  0.18460841  0.77836771  0.32006893    -0.93700
O1866       O  0.16668133  0.90071627  0.44940917    -0.41500
O1867       O  0.14865300  0.81111948  0.39721726    -0.78100
O1868       O  0.12001278  0.83796020  0.39710036    -0.96800
O1869       O  0.09835746  0.81592835  0.32964425    -0.90100
O1870       O  0.13197507  0.78893239  0.33308933    -0.92900
C1871       C  0.24257334  0.92426538  0.41153619     1.00800
C1872       C  0.24630395  0.86879376  0.31346808     1.13700
C1873       C  0.16181574  0.92818126  0.30699521     1.04500
O1874       O  0.12467042  0.90980160  0.38409035    -0.95100
O1875       O  0.07505072  0.84447851  0.38778347    -0.90800
O1876       O  0.06140904  0.79613462  0.39907928    -0.84000
C1877       C  0.05845640  0.81887947  0.40215960     1.11200
O1878       O  0.15448136  0.84677142  0.24127611    -0.97100
Zr1879     Zr  0.13281368  0.81853827  0.29057713     1.88900
O1880       O  0.06895827  0.74750389  0.32915900    -0.73700
O1881       O  0.07456543  0.85393153  0.32235434    -0.53000
O1882       O  0.09450462  0.81806422  0.25807216    -0.97700
O1883       O  0.15525891  0.79775341  0.25741770    -0.54900
O1884       O  0.09353260  0.76523213  0.28182428    -0.74200
C1885       C  0.07313166  0.74391378  0.29922589     0.98100
O1886       O  0.05592099  0.74168607  0.39795127    -0.63100
O1887       O  0.21697229  0.81658781  0.39624856    -0.57900
O1888       O  0.10915526  0.75548367  0.40225954    -0.94500
O1889       O  0.15291406  0.76328638  0.38305747    -0.93000
O1890       O  0.18987134  0.84261360  0.45600708    -0.93300
O1891       O  0.14204367  0.84267379  0.46928603    -0.92100
C1892       C  0.12811411  0.74804379  0.39951530     1.16900
H1893       H  0.22202942  0.87211336  0.38531352     0.32900
H1894       H  0.11028684  0.83828639  0.41642203     0.43700
H1895       H  0.12591712  0.76844421  0.32618391     0.37300
H1896       H  0.15062595  0.87742173  0.29279042     0.33700
H1897       H  0.17845011  0.90488358  0.46969140     0.25500
H1898       H  0.07363333  0.87201507  0.32611464     0.31500
H1899       H  0.08728621  0.80105741  0.24164336     0.37400
H1900       H  0.20838312  0.84656682  0.44552428     0.31800
H1901       H  0.21971179  0.80027713  0.38898570     0.30700
H1902       H  0.19955570  0.77569655  0.33059083     0.32400
H1903       H  0.14013937  0.78548816  0.23968549     0.31400
H1904       H  0.12615844  0.82033095  0.46448271     0.35400
H1905       H  0.05529164  0.74844176  0.42027905     0.28100
H1906       H  0.24567546  0.95822207  0.31897913     0.32300
H1907       H  0.14230919  0.83174279  0.22322265     0.35200
H1908       H  0.23702208  0.83634439  0.39260604     0.27800
H1909       H  0.03742144  0.73755255  0.38692981     0.40700
H1910       H  0.12371234  0.90470365  0.40699687     0.30700
H1911       H  0.17947148  0.92006230  0.43753629     0.38300
H1912       H  0.15434310  0.78198271  0.27067567     0.30200
H1913       H  0.08067429  0.85522640  0.29963799     0.30200
H1914       H  0.23499003  0.93784474  0.28671627     0.30500
Zr1915     Zr  0.41080378  0.87559856  0.30290883     2.17500
O1916       O  0.42741739  0.91378056  0.26157268    -0.51800
O1917       O  0.36489228  0.87515713  0.28940763    -0.75000
O1918       O  0.42704676  0.86084935  0.25244289    -0.81800
O1919       O  0.43172045  0.92972168  0.37954297    -0.83600
O1920       O  0.39084180  0.81067585  0.25305254    -0.79200
O1921       O  0.44294386  0.92971140  0.32654458    -0.90800
O1922       O  0.32384628  0.83941202  0.31804294    -0.76800
O1923       O  0.37100160  0.82093147  0.29962012    -0.86300
O1924       O  0.37879320  0.86449802  0.34851830    -0.86000
O1925       O  0.43631150  0.84944171  0.30720919    -0.72700
O1926       O  0.44134208  0.88938829  0.35170579    -0.84900
Zr1927     Zr  0.39492067  0.79710780  0.39470883     2.26400
Zr1928     Zr  0.39579922  0.79476765  0.30440473     2.06300
Zr1929     Zr  0.40866789  0.87692126  0.39673820     2.10000
Zr1930     Zr  0.33898272  0.81027318  0.34436342     1.78800
O1931       O  0.45001568  0.90960824  0.43599218    -0.93700
O1932       O  0.30397596  0.77528186  0.30102055    -0.41500
O1933       O  0.36953050  0.82264026  0.39192090    -0.78100
O1934       O  0.36179767  0.78257963  0.34786690    -0.96800
O1935       O  0.42806744  0.80890477  0.35098846    -0.90100
O1936       O  0.43394307  0.85159723  0.40042753    -0.92900
C1937       C  0.33698595  0.86191527  0.29897726     1.00800
C1938       C  0.44503900  0.94377691  0.35370509     1.13700
C1939       C  0.41539598  0.83286596  0.24128381     1.04500
O1940       O  0.36463458  0.75269602  0.26481158    -0.95100
O1941       O  0.37374533  0.74259516  0.32084669    -0.90800
O1942       O  0.37045240  0.74359745  0.37530172    -0.84000
C1943       C  0.36566339  0.72949818  0.34790462     1.11200
O1944       O  0.00624977  0.90946688  0.32728717    -0.97100
Zr1945     Zr  0.46613392  0.86369565  0.35537431     1.88900
O1946       O  0.44064156  0.80379465  0.41813790    -0.73700
O1947       O  0.43710272  0.79148462  0.28551096    -0.53000
O1948       O  0.49723208  0.85238572  0.32368314    -0.97700
O1949       O  0.50351772  0.90559786  0.39269170    -0.54900
O1950       O  0.48157572  0.83895356  0.38908080    -0.74200
C1951       C  0.46908388  0.81919908  0.41107339     0.98100
O1952       O  0.37750701  0.76035881  0.43789963    -0.63100
O1953       O  0.37815540  0.89420398  0.41831126    -0.57900
O1954       O  0.37312777  0.80209329  0.44294446    -0.94500
O1955       O  0.38322606  0.85021268  0.44604273    -0.93000
O1956       O  0.30925273  0.81692464  0.38380433    -0.93300
O1957       O  0.29530083  0.76189571  0.36461731    -0.92100
C1958       C  0.37165607  0.82305630  0.45707083     1.16900
H1959       H  0.37125238  0.87729151  0.34971095     0.32900
H1960       H  0.34436247  0.76117602  0.34695765     0.43700
H1961       H  0.44487558  0.85671837  0.42079864     0.37300
H1962       H  0.45171758  0.85472798  0.29148249     0.33700
H1963       H  0.28507805  0.77433555  0.30421243     0.25500
H1964       H  0.42794441  0.77608571  0.26719580     0.31500
H1965       H  0.51636105  0.86141559  0.33661285     0.37400
H1966       H  0.29141873  0.81310311  0.37147376     0.31800
H1967       H  0.39171203  0.91073317  0.43468005     0.30700
H1968       H  0.43991462  0.91215180  0.45454231     0.32400
H1969       H  0.02211701  0.90481064  0.39246974     0.31400
H1970       H  0.30344992  0.75800075  0.38382784     0.35400
H1971       H  0.35557454  0.74386568  0.43317458     0.28100
H1972       H  0.41498546  0.90183845  0.24203329     0.32300
H1973       H  0.02596901  0.91303375  0.33357287     0.35200
H1974       H  0.37612956  0.90522134  0.40075244     0.27800
H1975       H  0.38804598  0.74998403  0.43498065     0.40700
H1976       H  0.34366204  0.74726729  0.26746499     0.30700
H1977       H  0.31259418  0.78683904  0.28106132     0.38300
H1978       H  0.49623528  0.89806238  0.41454528     0.30200
H1979       H  0.45211097  0.81148534  0.27564448     0.30200
H1980       H  0.44853558  0.92069100  0.25650307     0.30500
C1981       C  0.30980703  0.90253964  0.25130800     0.02600
C1982       C  0.32751015  0.89246625  0.26216125    -0.13500
C1983       C  0.31871151  0.87370224  0.28878210     0.00100
C1984       C  0.29199016  0.86579792  0.30546882    -0.12100
C1985       C  0.27459689  0.87690182  0.29598021     0.02600
C1986       C  0.28398999  0.89540992  0.26882365    -0.11500
H1987       H  0.34710389  0.89749973  0.24858066     0.08200
H1988       H  0.28493531  0.85135733  0.32617596     0.05700
H1989       H  0.27028795  0.90310305  0.26033627     0.05600
C1990       C  0.30903681  0.94580777  0.46733731     0.02600
C1991       C  0.33006110  0.97702161  0.46007400    -0.13500
C1992       C  0.32249275  0.99085963  0.43685544     0.00100
C1993       C  0.29392186  0.97362221  0.42095375    -0.12100
C1994       C  0.27286417  0.94277963  0.42773515     0.02600
C1995       C  0.28049506  0.92890899  0.45070008    -0.11500
H1996       H  0.35212214  0.49062746  0.47276180     0.08200
H1997       H  0.28825536  0.98392136  0.40269996     0.05700
H1998       H  0.26382631  0.90472865  0.45586564     0.05600
C1999       C  0.16128836  0.95054661  0.28628495     0.02600
C2000       C  0.13901390  0.94006314  0.26074279    -0.13500
C2001       C  0.13341916  0.96054280  0.24604447     0.00100
C2002       C  0.15079744  0.99156084  0.25734808    -0.12100
C2003       C  0.17273243  0.50206351  0.28281836     0.02600
C2004       C  0.17788830  0.98163128  0.29670082    -0.11500
H2005       H  0.12616423  0.91600571  0.25221431     0.08200
H2006       H  0.14746684  0.50781678  0.24660279     0.05700
H2007       H  0.19343268  0.98954482  0.31736669     0.05600
C2008       C  0.34163891  0.64756500  0.33549123     0.02600
C2009       C  0.31003126  0.63108110  0.33940475    -0.13500
C2010       C  0.29721325  0.64690036  0.34804708     0.00100
C2011       C  0.31580707  0.67921952  0.35266610    -0.12100
C2012       C  0.34717100  0.69580748  0.34693017     0.02600
C2013       C  0.36005326  0.68009947  0.33795178    -0.11500
H2014       H  0.29549527  0.60594946  0.33667771     0.08200
H2015       H  0.30566040  0.69152412  0.35896174     0.05700
H2016       H  0.38454168  0.69321190  0.33436577     0.05600
C2017       C  0.00646041  0.98370972  0.61907934     0.02600
C2018       C  0.02150480  0.51534969  0.61489427    -0.13500
C2019       C  0.00592086  0.52781720  0.60481940     0.00100
C2020       C  0.47424827  0.50865576  0.59995438    -0.12100
C2021       C  0.45755485  0.97649527  0.60566439     0.02600
C2022       C  0.47391736  0.96405944  0.61561684    -0.11500
H2023       H  0.04623807  0.53064695  0.61813254     0.08200
H2024       H  0.46216236  0.51872460  0.59338087     0.05700
H2025       H  0.46169791  0.93939737  0.61911518     0.05600
C2026       C  0.12983829  0.85396652  0.58735492     0.02600
C2027       C  0.16183235  0.87484955  0.59170154    -0.13500
C2028       C  0.17879466  0.86519469  0.60581484     0.00100
C2029       C  0.16381177  0.83438872  0.61483878    -0.12100
C2030       C  0.13233071  0.81315220  0.60869076     0.02600
C2031       C  0.11537383  0.82309577  0.59559073    -0.11500
H2032       H  0.17351409  0.89873078  0.58481439     0.08200
H2033       H  0.17706988  0.82630362  0.62375263     0.05700
H2034       H  0.09089054  0.80657867  0.59138842     0.05600
C2035       C  0.35327342  0.81416463  0.98649736     0.02600
C2036       C  0.35005649  0.83558542  0.50281007    -0.13500
C2037       C  0.33359158  0.82777267  0.53119298     0.00100
C2038       C  0.32064804  0.79824421  0.54372517    -0.12100
C2039       C  0.32483822  0.77697574  0.52867313     0.02600
C2040       C  0.34149531  0.78511400  0.50018786    -0.11500
H2041       H  0.35826872  0.85760951  0.99230508     0.08200
H2042       H  0.30943708  0.79261386  0.56675127     0.05700
H2043       H  0.34599579  0.76928563  0.98912867     0.05600
Zr2044     Zr  0.10453935  0.92081698  0.55067289     2.17500
O2045       O  0.13726469  0.92574579  0.50678491    -0.51800
O2046       O  0.07119186  0.88378840  0.50672219    -0.75000
O2047       O  0.12412502  0.89030731  0.56255903    -0.81800
O2048       O  0.10740854  0.98654308  0.52825520    -0.83600
O2049       O  0.08421484  0.85147485  0.58910690    -0.79200
O2050       O  0.14097252  0.97470080  0.53242945    -0.90800
O2051       O  0.02234028  0.86391960  0.52055696    -0.76800
O2052       O  0.05742455  0.87823663  0.57191815    -0.86300
O2053       O  0.06825826  0.93381315  0.54637825    -0.86000
O2054       O  0.11510059  0.91660978  0.60670221    -0.72700
O2055       O  0.12492551  0.96795018  0.58275072    -0.84900
Zr2056     Zr  0.05555870  0.93503591  0.65857140     2.26400
Zr2057     Zr  0.06700930  0.87420132  0.62739929     2.06300
Zr2058     Zr  0.08764404  0.97921998  0.58174987     2.10000
Zr2059     Zr  0.02279268  0.89232869  0.56887915     1.78800
O2060       O  0.12993651  0.53069441  0.60181840    -0.93700
O2061       O  0.48182530  0.83767639  0.57588979    -0.41500
O2062       O  0.04698517  0.93605108  0.60363764    -0.78100
O2063       O  0.03143024  0.88798093  0.62403160    -0.96800
O2064       O  0.09033157  0.92104697  0.65889756    -0.88500
O2065       O  0.10111326  0.97848725  0.63679669    -0.92900
C2066       C  0.04204897  0.86483699  0.50183229     1.00800
C2067       C  0.13435275  0.99374343  0.52482015     1.13700
C2068       C  0.11131583  0.86518539  0.57803939     1.04500
O2069       O  0.03685753  0.81785506  0.62906587    -0.95100
O2070       O  0.02530051  0.85066143  0.66714105    -0.90800
O2071       O  0.01837892  0.88743370  0.68496433    -0.84000
C2072       C  0.01079456  0.85946121  0.68367874     1.11200
O2073       O  0.18424223  0.99480981  0.60850696    -0.97100
Zr2074     Zr  0.13619241  0.96393906  0.63686783     1.88900
O2075       O  0.09347085  0.95240639  0.70692407    -0.73700
O2076       O  0.09999300  0.87403420  0.66776172    -0.53000
O2077       O  0.17656745  0.95688943  0.64851676    -0.97700
O2078       O  0.16174706  0.51517026  0.66416549    -0.54900
O2079       O  0.13297201  0.95049129  0.69144375    -0.74200
C2080       C  0.11799563  0.95314152  0.71332776     0.98100
O2081       O  0.53894548  0.95045177  0.70600695    -0.63100
O2082       O  0.08372484  0.01764620  0.55543789    -0.57900
O2083       O  0.02709200  0.95821439  0.64505116    -0.94500
O2084       O  0.04434626  0.98012862  0.59652916    -0.93000
O2085       O  0.00539491  0.91235081  0.52911517    -0.93300
O2086       O  0.47323006  0.88293242  0.57957354    -0.92100
C2087       C  0.02654653  0.97250936  0.62052799     1.16900
H2088       H  0.06395386  0.93556959  0.52427233     0.32900
H2089       H  0.01052326  0.87213312  0.62901281     0.43700
H2090       H  0.10788555  0.99726276  0.64921704     0.37300
H2091       H  0.13091905  0.91354735  0.61095124     0.33700
H2092       H  0.47034272  0.83048884  0.55502528     0.25500
H2093       H  0.08635418  0.85440762  0.67894165     0.31500
H2094       H  0.18901544  0.97217223  0.66630262     0.37400
H2095       H  0.49364685  0.89449133  0.51277162     0.31800
H2096       H  0.10441846  0.03312957  0.54727849     0.30700
H2097       H  0.14858410  0.53250153  0.59474664     0.32400
H2098       H  0.18211013  0.52052218  0.67087257     0.31400
H2099       H  0.47552375  0.89204394  0.60150829     0.35400
H2100       H  0.54852994  0.97297126  0.70442556     0.28100
H2101       H  0.12960412  0.90421275  0.49996419     0.32300
H2102       H  0.18831883  0.01559760  0.60728475     0.35200
H2103       H  0.07087303  0.00679543  0.53580280     0.27800
H2104       H  0.51664214  0.94027402  0.70306414     0.40700
H2105       H  0.01932366  0.81042957  0.61403313     0.30700
H2106       H  0.99198562  0.82701524  0.57620780     0.38300
H2107       H  0.15099291  0.51187141  0.68464570     0.30200
H2108       H  0.11370430  0.87071335  0.65522367     0.30200
H2109       H  0.15749924  0.93433838  0.51715136     0.30500
C2110       C  0.16855517  0.57241352  0.98997794     0.02600
C2111       C  0.19558251  0.59062695  0.00859258    -0.13500
C2112       C  0.20435087  0.57782106  0.53150041     0.00100
C2113       C  0.18568992  0.54531205  0.53469695    -0.12100
C2114       C  0.15805640  0.52646721  0.51639895     0.02600
C2115       C  0.14954461  0.54032731  0.99450699    -0.11500
H2116       H  0.21023153  0.61533849  0.00477766     0.08200
H2117       H  0.19141717  0.53504875  0.55285894     0.05700
H2118       H  0.12835466  0.52598426  0.98051671     0.05600
C2119       C  0.43244648  0.82461784  0.71990802     0.02600
C2120       C  0.41689267  0.79430557  0.70559812    -0.13500
C2121       C  0.43222112  0.78424064  0.68725799     0.00100
C2122       C  0.46394122  0.80479213  0.68390336    -0.12100
C2123       C  0.48015143  0.83548121  0.69700287     0.02600
C2124       C  0.46423850  0.84489406  0.71552635    -0.11500
H2125       H  0.39215611  0.77889961  0.70686586     0.08200
H2126       H  0.47510225  0.79820596  0.66730700     0.05700
H2127       H  0.47645228  0.86839434  0.72566342     0.05600
Zr2128     Zr  0.37690874  0.68145236  0.62852100     2.17500
O2129       O  0.41993838  0.68957214  0.65958233    -0.51800
O2130       O  0.40833674  0.67571649  0.58907279    -0.75000
O2131       O  0.36103636  0.63341458  0.65557187    -0.81800
O2132       O  0.40258915  0.76791573  0.64109266    -0.83600
O2133       O  0.31465828  0.59499708  0.63327327    -0.79200
O2134       O  0.40847487  0.73214213  0.66198368    -0.90800
O2135       O  0.38562519  0.66232532  0.53935893    -0.76800
O2136       O  0.34517340  0.64639477  0.58469786    -0.86300
O2137       O  0.38322781  0.71204288  0.58383577    -0.86000
O2138       O  0.32447655  0.65071718  0.64668915    -0.72700
O2139       O  0.35876276  0.71168395  0.64485189    -0.84900
Zr2140     Zr  0.28068331  0.67747138  0.57844151     2.26400
Zr2141     Zr  0.29318474  0.61634178  0.60171430     2.06300
Zr2142     Zr  0.36367953  0.74128390  0.60050082     2.10000
Zr2143     Zr  0.35069072  0.67709313  0.54089800     1.78800
O2144       O  0.36468978  0.78405108  0.62626291    -0.93700
O2145       O  0.33056129  0.63352021  0.50210589    -0.41500
O2146       O  0.33154024  0.70652865  0.55764636    -0.78100
O2147       O  0.29879909  0.64729756  0.55752773    -0.96800
O2148       O  0.27688403  0.64721383  0.62156018    -0.90100
O2149       O  0.31262679  0.71336033  0.62093351    -0.92900
C2150       C  0.40594645  0.66641551  0.55929447     1.00800
C2151       C  0.41398420  0.75971242  0.66177276     1.13700
C2152       C  0.33793341  0.60473399  0.65206079     1.04500
O2153       O  0.29043973  0.57606633  0.56809030    -0.95100
O2154       O  0.24462945  0.58959472  0.56957584    -0.90800
O2155       O  0.24201615  0.62833885  0.55174562    -0.84000
C2156       C  0.23188960  0.59958085  0.55259488     1.11200
O2157       O  0.34307221  0.70335546  0.71138617    -0.97100
Zr2158     Zr  0.30847480  0.68251616  0.66439097     1.88900
O2159       O  0.24025438  0.66366278  0.61827937    -0.73700
O2160       O  0.25238684  0.57953241  0.63661804    -0.53000
O2161       O  0.28802331  0.64432211  0.70622478    -0.97700
O2162       O  0.30535868  0.72273199  0.69044693    -0.54900
O2163       O  0.25488191  0.65783176  0.66707793    -0.74200
C2164       C  0.23474869  0.65467996  0.64765956     0.98100
O2165       O  0.24071524  0.67657772  0.54849814    -0.63100
O2166       O  0.40928169  0.77667633  0.56996611    -0.57900
O2167       O  0.29739063  0.72653602  0.55187493    -0.94500
O2168       O  0.34823139  0.76246476  0.56225616    -0.93000
O2169       O  0.39395612  0.72220160  0.51556750    -0.93300
O2170       O  0.33725816  0.68542591  0.48810866    -0.92100
C2171       C  0.32290322  0.75342000  0.54857598     1.16900
H2172       H  0.40445789  0.72503849  0.57787692     0.32900
H2173       H  0.28790572  0.63473956  0.53841306     0.43700
H2174       H  0.30668385  0.72706988  0.62661951     0.37300
H2175       H  0.32158742  0.63946476  0.66574992     0.33700
H2176       H  0.34756523  0.63987606  0.48725030     0.25500
H2177       H  0.24971638  0.55959344  0.63169430     0.31500
H2178       H  0.27727115  0.65001904  0.72092437     0.37400
H2179       H  0.40201802  0.71359056  0.50070179     0.31800
H2180       H  0.41162110  0.79672254  0.57151738     0.30700
H2181       H  0.38098131  0.80279672  0.61528606     0.32400
H2182       H  0.29827735  0.71547931  0.71244175     0.31400
H2183       H  0.31834347  0.68438783  0.49156127     0.35400
H2184       H  0.24006571  0.69367222  0.55795825     0.28100
H2185       H  0.42251203  0.67339206  0.65131520     0.32300
H2186       H  0.33001962  0.69837081  0.73035849     0.35200
H2187       H  0.42660507  0.78027693  0.58310970     0.27800
H2188       H  0.24811334  0.68262930  0.52631589     0.40700
H2189       H  0.31191027  0.58269172  0.56658616     0.30700
H2190       H  0.32869760  0.61678894  0.51448911     0.38300
H2191       H  0.28767103  0.72076380  0.67984300     0.30200
H2192       H  0.26165492  0.58584149  0.65861605     0.30200
H2193       H  0.41228087  0.68340035  0.68166622     0.30500
Zr2194     Zr  0.35488168  0.92791918  0.55791823     2.17500
O2195       O  0.38915332  0.94145443  0.51283617    -0.51800
O2196       O  0.34637825  0.87885493  0.53988114    -0.75000
O2197       O  0.40899393  0.95347024  0.57761684    -0.81800
O2198       O  0.29046604  0.90759487  0.50611078    -0.83600
O2199       O  0.41028073  0.95163840  0.63231716    -0.79200
O2200       O  0.34053495  0.94496708  0.50970504    -0.90800
O2201       O  0.31196510  0.84014937  0.57171563    -0.76800
O2202       O  0.34576451  0.90062217  0.60645022    -0.86300
O2203       O  0.30127720  0.88630093  0.55898222    -0.86000
O2204       O  0.37022077  0.96540413  0.60197903    -0.72700
O2205       O  0.32753425  0.95147505  0.55725411    -0.84900
Zr2206     Zr  0.28128820  0.92149119  0.65100192     2.26400
Zr2207     Zr  0.36041805  0.93741553  0.65050035     2.06300
Zr2208     Zr  0.27424792  0.90993159  0.55928746     2.10000
Zr2209     Zr  0.29227591  0.86016519  0.60753849     1.78800
O2210       O  0.26661574  0.94475939  0.53088654    -0.93700
O2211       O  0.30905822  0.83549009  0.64150872    -0.41500
O2212       O  0.26484718  0.88315791  0.60800155    -0.78100
O2213       O  0.30694085  0.89580510  0.65164093    -0.96800
O2214       O  0.33465267  0.96237313  0.64977629    -0.90100
O2215       O  0.28833988  0.94720494  0.60203865    -0.92900
C2216       C  0.33062825  0.85053897  0.54863411     1.00800
C2217       C  0.31417790  0.93162477  0.49498804     1.13700
C2218       C  0.42328847  0.95830396  0.60487719     1.04500
O2219       O  0.37859280  0.91093194  0.67873667    -0.95100
O2220       O  0.34115330  0.92664182  0.70569343    -0.90800
O2221       O  0.29168234  0.91140942  0.70414309    -0.84000
C2222       C  0.31506029  0.91566790  0.71885274     1.11200
O2223       O  0.38645738  0.52771811  0.57157865    -0.97100
Zr2224     Zr  0.34198552  0.98788846  0.60072975     1.88900
O2225       O  0.29731271  0.97277957  0.67155999    -0.73700
O2226       O  0.39629314  0.98676797  0.67930623    -0.53000
O2227       O  0.37780292  0.52885085  0.63919619    -0.97700
O2228       O  0.33076046  0.51363688  0.56108912    -0.54900
O2229       O  0.31036653  0.00003578  0.62701221    -0.74200
C2230       C  0.30617301  0.99760319  0.65708728     0.98100
O2231       O  0.24490960  0.91218453  0.69267181    -0.63100
O2232       O  0.23092868  0.86486876  0.53019436    -0.57900
O2233       O  0.22732924  0.89082031  0.63246751    -0.94500
O2234       O  0.22456349  0.89316898  0.57812089    -0.93000
O2235       O  0.24732219  0.81921039  0.57648177    -0.93300
O2236       O  0.25204837  0.82071059  0.64116732    -0.92100
C2237       C  0.21239377  0.88501078  0.60573469     1.16900
H2238       H  0.29470304  0.87200665  0.54059351     0.32900
H2239       H  0.30206680  0.88252605  0.66944981     0.43700
H2240       H  0.27471727  0.95362682  0.60035407     0.37300
H2241       H  0.39149318  0.98267132  0.60118999     0.33700
H2242       H  0.29924370  0.81434331  0.63171050     0.25500
H2243       H  0.41047407  0.98360201  0.69084134     0.31500
H2244       H  0.37378379  0.54493884  0.63791084     0.37400
H2245       H  0.24888300  0.80137063  0.57595806     0.31800
H2246       H  0.22955191  0.87277560  0.50944217     0.30700
H2247       H  0.24937284  0.93101969  0.51553602     0.32400
H2248       H  0.33732961  0.53369321  0.57178418     0.31400
H2249       H  0.24405528  0.83131289  0.65265563     0.35400
H2250       H  0.23358701  0.92049962  0.68470454     0.28100
H2251       H  0.39944426  0.93102215  0.51651103     0.32300
H2252       H  0.39106775  0.54785949  0.57980324     0.35200
H2253       H  0.23787351  0.85151735  0.52444725     0.27800
H2254       H  0.22961169  0.88939832  0.69294959     0.40700
H2255       H  0.35993963  0.88987782  0.68207533     0.30700
H2256       H  0.33110509  0.84620138  0.63706651     0.38300
H2257       H  0.30906633  0.00205986  0.55956913     0.30200
H2258       H  0.40882216  0.00131303  0.66227916     0.30200
H2259       H  0.40547987  0.96389299  0.51622819     0.30500
C2260       C  0.33654173  0.58067609  0.67122085     0.02600
C2261       C  0.31785955  0.54989598  0.65952928    -0.13500
C2262       C  0.31593153  0.52604622  0.67573468     0.00100
C2263       C  0.33092442  0.53240573  0.70559492    -0.12100
C2264       C  0.34947552  0.56295237  0.71837293     0.02600
C2265       C  0.35244445  0.58723444  0.70077424    -0.11500
H2266       H  0.30628349  0.54458439  0.63626256     0.08200
H2267       H  0.32988725  0.51393162  0.71771891     0.05700
H2268       H  0.36672944  0.61104644  0.71009601     0.05600
C2269       C  0.16759659  0.61106282  0.70435304     0.02600
C2270       C  0.19644208  0.62420108  0.69032069    -0.13500
C2271       C  0.20346218  0.63889397  0.66056856     0.00100
C2272       C  0.18095071  0.63941884  0.64444543    -0.12100
C2273       C  0.15233780  0.62698715  0.65840181     0.02600
C2274       C  0.14554993  0.61232501  0.68789914    -0.11500
H2275       H  0.21392119  0.62389647  0.70315528     0.08200
H2276       H  0.18647749  0.65135197  0.62202264     0.05700
H2277       H  0.12367784  0.60340299  0.69885043     0.05600
Zr2278     Zr  0.06683750  0.63137835  0.64943513     2.17500
O2279       O  0.04988088  0.59572571  0.69348396    -0.51800
O2280       O  0.11065135  0.63091011  0.66219697    -0.75000
O2281       O  0.03517980  0.57739287  0.62979322    -0.81800
O2282       O  0.09433173  0.69673366  0.70728960    -0.83600
O2283       O  0.02607999  0.57378677  0.57563544    -0.79200
O2284       O  0.05447373  0.64681875  0.69995902    -0.90800
O2285       O  0.13745692  0.64464492  0.61654008    -0.76800
O2286       O  0.08887035  0.63494227  0.59834966    -0.86300
O2287       O  0.11405636  0.68222496  0.64962916    -0.86000
O2288       O  0.02954317  0.62218688  0.60934632    -0.72700
O2289       O  0.05353561  0.66725707  0.65587333    -0.84900
Zr2290     Zr  0.08323848  0.71184273  0.56437716     2.26400
Zr2291     Zr  0.05281384  0.62722751  0.55790855     2.06300
Zr2292     Zr  0.10029592  0.71792273  0.65462982     2.10000
Zr2293     Zr  0.13517705  0.68587068  0.59840998     1.78800
O2294       O  0.07807355  0.73833178  0.68853561    -0.93700
O2295       O  0.15568747  0.67330596  0.55309728    -0.41500
O2296       O  0.12195474  0.72209542  0.60310981    -0.78100
O2297       O  0.09989041  0.67829468  0.55827753    -0.96800
O2298       O  0.03694020  0.66097178  0.56537597    -0.90100
O2299       O  0.06271875  0.70940199  0.61619504    -0.92900
C2300       C  0.13183516  0.63393753  0.64468233     1.00800
C2301       C  0.06935478  0.67253321  0.71680881     1.13700
C2302       C  0.02329683  0.56180444  0.60308536     1.04500
O2303       O  0.07124598  0.60085144  0.52789016    -0.95100
O2304       O  0.06799232  0.64935004  0.50374347    -0.90800
O2305       O  0.08641066  0.70048795  0.50836509    -0.84000
C2306       C  0.08045826  0.67650965  0.49197037     1.11200
O2307       O  0.47653294  0.61820145  0.65051877    -0.97100
Zr2308     Zr  0.01653601  0.65835505  0.61739343     1.88900
O2309       O  0.03472086  0.70044967  0.54497589    -0.73700
O2310       O  0.00485321  0.60006575  0.52683569    -0.53000
O2311       O  0.46972424  0.62360344  0.58542236    -0.97700
O2312       O  0.49932643  0.67667657  0.66074560    -0.54900
O2313       O  0.01227414  0.69554610  0.59154922    -0.74200
C2314       C  0.01162816  0.69440611  0.56109785     0.98100
O2315       O  0.11256727  0.75291121  0.52616237    -0.63100
O2316       O  0.15081916  0.75361074  0.67986248    -0.57900
O2317       O  0.10280707  0.76335776  0.58539016    -0.94500
O2318       O  0.12232337  0.76974705  0.63608501    -0.93000
O2319       O  0.17914116  0.71384900  0.63565136    -0.93300
O2320       O  0.17916060  0.73048820  0.57337369    -0.92100
C2321       C  0.11809703  0.77994590  0.61050968     1.16900
H2322       H  0.12781241  0.68577494  0.66710030     0.32900
H2323       H  0.11160903  0.68213827  0.53918791     0.43700
H2324       H  0.05922737  0.72528028  0.62009396     0.37300
H2325       H  0.01039473  0.60207360  0.61099394     0.33700
H2326       H  0.17103948  0.67078037  0.56281256     0.25500
H2327       H  0.00160073  0.58037558  0.51916206     0.31500
H2328       H  0.45471125  0.62703099  0.59449667     0.37400
H2329       H  0.19154860  0.70592200  0.63005073     0.31800
H2330       H  0.15447164  0.74045147  0.69263764     0.30700
H2331       H  0.09493817  0.75359750  0.70353708     0.32400
H2332       H  0.50944404  0.69900300  0.65705537     0.31400
H2333       H  0.17013371  0.73623592  0.55675996     0.35400
H2334       H  0.10289203  0.76422740  0.52507549     0.28100
H2335       H  0.05693062  0.58235447  0.68831672     0.32300
H2336       H  0.48773423  0.61520547  0.66726120     0.35200
H2337       H  0.16524055  0.76029176  0.66187673     0.27800
H2338       H  0.13304449  0.76783485  0.53636521     0.40700
H2339       H  0.08345718  0.59841063  0.54381807     0.30700
H2340       H  0.13867894  0.65206271  0.54567518     0.38300
H2341       H  0.00984748  0.67596377  0.68086060     0.30200
H2342       H  0.98893092  0.59378765  0.54310169     0.30200
H2343       H  0.52761051  0.58196787  0.69137840     0.30500
C2344       C  0.42878104  0.66137214  0.54629973     0.02600
C2345       C  0.45833327  0.67869975  0.55979631    -0.13500
C2346       C  0.48168419  0.67828799  0.54518691     0.00100
C2347       C  0.47527197  0.65893261  0.51792714    -0.12100
C2348       C  0.44566417  0.64032510  0.00409388     0.02600
C2349       C  0.42262764  0.64232410  0.51825752    -0.11500
H2350       H  0.46356071  0.69349023  0.58112765     0.08200
H2351       H  0.49332865  0.65852735  0.00631922     0.05700
H2352       H  0.40030463  0.63024879  0.00589158     0.05600
C2353       C  0.47820155  0.52981539  0.87422575     0.02600
C2354       C  0.45667011  0.99701309  0.86892806    -0.13500
C2355       C  0.46636306  0.97853441  0.85681181     0.00100
C2356       C  0.99767744  0.49284380  0.85029885    -0.12100
C2357       C  0.01893056  0.52477577  0.85691223     0.02600
C2358       C  0.00906530  0.54268799  0.86848562    -0.11500
H2359       H  0.43254752  0.98639733  0.87277210     0.08200
H2360       H  0.00570798  0.97932867  0.84196539     0.05700
H2361       H  0.02563184  0.56757725  0.87228063     0.05600
Zr2362     Zr  0.12080050  0.58267649  0.89863675     2.17500
O2363       O  0.08091132  0.56289902  0.93880802    -0.51800
O2364       O  0.11901591  0.62709345  0.91440233    -0.75000
O2365       O  0.13564816  0.57254068  0.95036948    -0.81800
O2366       O  0.06322181  0.54604753  0.82553460    -0.83600
O2367       O  0.18566466  0.61012622  0.95034005    -0.79200
O2368       O  0.06763253  0.54957512  0.88038516    -0.90800
O2369       O  0.15125875  0.66778388  0.88355528    -0.76800
O2370       O  0.17257443  0.62750388  0.89882868    -0.86300
O2371       O  0.12605957  0.60921044  0.85061286    -0.86000
O2372       O  0.15084767  0.56136170  0.89740780    -0.72700
O2373       O  0.10817608  0.54708059  0.85326335    -0.84900
Zr2374     Zr  0.19816953  0.59985779  0.80624813     2.26400
Zr2375     Zr  0.20252690  0.60678135  0.89745490     2.06300
Zr2376     Zr  0.11516238  0.57466183  0.80531288     2.10000
Zr2377     Zr  0.17791551  0.65340254  0.85052207     1.78800
O2378       O  0.08345217  0.52965788  0.76879521    -0.93700
O2379       O  0.21819360  0.69803962  0.88292647    -0.41500
O2380       O  0.16716375  0.61918643  0.80566254    -0.78100
O2381       O  0.20989337  0.63561556  0.85054922    -0.96800
O2382       O  0.19169548  0.57176203  0.85324501    -0.90100
O2383       O  0.14572734  0.55512712  0.80385922    -0.92900
C2384       C  0.13093130  0.65484412  0.90498464     1.00800
C2385       C  0.05196546  0.54041472  0.85385374     1.13700
C2386       C  0.16265534  0.58640001  0.96302434     1.04500
O2387       O  0.24434660  0.64259160  0.93499194    -0.95100
O2388       O  0.25362509  0.63300378  0.87688762    -0.90800
O2389       O  0.24781263  0.61436447  0.82524999    -0.84000
C2390       C  0.26405717  0.63007226  0.85036829     1.11200
O2391       O  0.11818329  0.99486282  0.89745858    -0.97100
Zr2392     Zr  0.13941885  0.52809503  0.85122442     1.88900
O2393       O  0.19338285  0.55540506  0.78128932    -0.73700
O2394       O  0.20942587  0.56855056  0.91850065    -0.53000
O2395       O  0.13678689  0.48101508  0.85947326    -0.97700
O2396       O  0.09525687  0.99539716  0.81473469    -0.54900
O2397       O  0.18417280  0.53438286  0.82860510    -0.74200
C2398       C  0.18555247  0.53234757  0.79818981     0.98100
O2399       O  0.24074357  0.64054164  0.77516684    -0.63100
O2400       O  0.09342817  0.60074902  0.78382523    -0.57900
O2401       O  0.18475033  0.60186029  0.75172565    -0.94500
O2402       O  0.13724523  0.59181601  0.75173710    -0.93000
O2403       O  0.15764562  0.67263398  0.81337401    -0.93300
O2404       O  0.21771407  0.69525659  0.81859397    -0.92100
C2405       C  0.16245113  0.60024297  0.73785540     1.16900
H2406       H  0.11199266  0.61513888  0.85027055     0.32900
H2407       H  0.23058957  0.65394157  0.84913385     0.43700
H2408       H  0.14083107  0.54241705  0.78442565     0.37300
H2409       H  0.14835924  0.54863683  0.91496663     0.33700
H2410       H  0.21349182  0.71363199  0.88180567     0.25500
H2411       H  0.22830582  0.57309735  0.90835264     0.31500
H2412       H  0.12347563  0.96786133  0.83143262     0.37400
H2413       H  0.16356637  0.69279124  0.82319373     0.31800
H2414       H  0.07887032  0.58636417  0.76653898     0.30700
H2415       H  0.07406501  0.53611954  0.75350416     0.32400
H2416       H  0.08099646  0.97650165  0.82675859     0.31400
H2417       H  0.21684564  0.68497300  0.79784174     0.35400
H2418       H  0.23321694  0.65188256  0.76524962     0.28100
H2419       H  0.09040633  0.57754437  0.95773351     0.32300
H2420       H  0.09789917  0.99104714  0.90053474     0.35200
H2421       H  0.08023932  0.60016545  0.80094390     0.27800
H2422       H  0.25634172  0.65597266  0.79114075     0.40700
H2423       H  0.24723270  0.66273932  0.93251064     0.30700
H2424       H  0.21389307  0.69127920  0.90542289     0.38300
H2425       H  0.10577255  0.48289743  0.79975867     0.30200
H2426       H  0.21535391  0.57501054  0.94145969     0.30200
H2427       H  0.07728401  0.54330925  0.94595254     0.30500
C2428       C  0.09314130  0.68250650  0.95914270     0.02600
C2429       C  0.10157663  0.70979910  0.94365478    -0.13500
C2430       C  0.12001885  0.71963046  0.91623830     0.00100
C2431       C  0.12957199  0.70147582  0.90422978    -0.12100
C2432       C  0.12054792  0.67353880  0.91867077     0.02600
C2433       C  0.10212813  0.66413820  0.94590147    -0.11500
H2434       H  0.09473673  0.72410377  0.95372292     0.08200
H2435       H  0.14349052  0.70884763  0.88296946     0.05700
H2436       H  0.09633112  0.64349291  0.95787161     0.05600
C2437       C  0.05461439  0.67643279  0.74476205     0.02600
C2438       C  0.07092679  0.70426163  0.76339644    -0.13500
C2439       C  0.05562461  0.71297651  0.78332060     0.00100
C2440       C  0.02396910  0.69371544  0.78493844    -0.12100
C2441       C  0.00751298  0.66510115  0.76777418     0.02600
C2442       C  0.02279732  0.65612405  0.74828292    -0.11500
H2443       H  0.09554041  0.72014931  0.76103153     0.08200
H2444       H  0.01231190  0.70100618  0.79970476     0.05700
H2445       H  0.50928620  0.63451273  0.73435896     0.05600
Zr2446     Zr  0.41168227  0.62533013  0.80728146     2.17500
O2447       O  0.41529874  0.66560129  0.77574150    -0.51800
O2448       O  0.38200592  0.59790976  0.75975840    -0.75000
O2449       O  0.45872347  0.65449984  0.77813216    -0.81800
O2450       O  0.34113286  0.60361680  0.84387357    -0.83600
O2451       O  0.46400427  0.61615377  0.78025493    -0.79200
O2452       O  0.38325530  0.64563472  0.82353702    -0.90800
O2453       O  0.36307406  0.54732495  0.76537057    -0.76800
O2454       O  0.42430522  0.58865977  0.80065173    -0.86300
O2455       O  0.36715765  0.57656082  0.82308664    -0.86000
O2456       O  0.45721456  0.64556875  0.84025887    -0.72700
O2457       O  0.40307745  0.63278534  0.86223012    -0.84900
Zr2458     Zr  0.42062005  0.57093730  0.90862159     2.26400
Zr2459     Zr  0.46809487  0.60717046  0.83581598     2.06300
Zr2460     Zr  0.36104858  0.58299137  0.87899227     2.10000
Zr2461     Zr  0.38066550  0.54140793  0.81794948     1.78800
O2462       O  0.35341648  0.60990201  0.92249685    -0.93700
O2463       O  0.40224730  0.52288757  0.77999148    -0.41500
O2464       O  0.37976454  0.55374902  0.87207166    -0.78100
O2465       O  0.42397558  0.55886505  0.85265873    -0.96800
O2466       O  0.46368853  0.61874161  0.89104875    -0.90100
O2467       O  0.40487167  0.60502742  0.91290595    -0.92900
C2468       C  0.36600405  0.56965229  0.74968478     1.00800
C2469       C  0.35581648  0.63108409  0.83338862     1.13700
C2470       C  0.47457471  0.64379581  0.77327548     1.04500
O2471       O  0.50504817  0.60389310  0.80501176    -0.95100
O2472       O  0.47845314  0.57093365  0.85458949    -0.90800
O2473       O  0.44976256  0.54792515  0.89848633    -0.84000
C2474       C  0.46869409  0.55123998  0.87688234     1.11200
O2475       O  0.47572438  0.70567634  0.87405218    -0.97100
Zr2476     Zr  0.44807909  0.65335059  0.89443713     1.88900
O2477       O  0.43649275  0.60346983  0.96061870    -0.73700
O2478       O  0.01914692  0.65273042  0.85069030    -0.53000
O2479       O  0.50060115  0.68150721  0.91512203    -0.97700
O2480       O  0.42868458  0.68326286  0.91296059    -0.54900
O2481       O  0.44711244  0.65090736  0.95102683    -0.74200
C2482       C  0.44294750  0.63045365  0.96996263     0.98100
O2483       O  0.42620174  0.54645423  0.95462907    -0.63100
O2484       O  0.30517081  0.55081944  0.88049032    -0.57900
O2485       O  0.37316875  0.52996910  0.92886267    -0.94500
O2486       O  0.33707438  0.53591935  0.90980484    -0.93000
O2487       O  0.32546234  0.50310068  0.82017545    -0.93300
O2488       O  0.36468168  0.98847295  0.82401319    -0.92100
C2489       C  0.34560878  0.52122415  0.92532807     1.16900
H2490       H  0.34875534  0.56956796  0.81078433     0.32900
H2491       H  0.42432363  0.54095413  0.84922024     0.43700
H2492       H  0.39744626  0.60572094  0.93380808     0.37300
H2493       H  0.47428896  0.66547797  0.83348028     0.33700
H2494       H  0.40603653  0.53453625  0.76023751     0.25500
H2495       H  0.03107047  0.65895963  0.83072478     0.31500
H2496       H  0.50210476  0.69551637  0.93267217     0.37400
H2497       H  0.32015348  0.50536911  0.84240752     0.31800
H2498       H  0.29964415  0.56529702  0.88661077     0.30700
H2499       H  0.34964610  0.62384038  0.91148622     0.32400
H2500       H  0.44147762  0.69554524  0.93219418     0.31400
H2501       H  0.36396010  0.98610926  0.84761342     0.35400
H2502       H  0.41812060  0.02456096  0.94701505     0.28100
H2503       H  0.41892859  0.66179366  0.75329256     0.32300
H2504       H  0.48464917  0.72001437  0.89325230     0.35200
H2505       H  0.29810598  0.54448931  0.85774508     0.27800
H2506       H  0.44851596  0.55736260  0.95859925     0.40700
H2507       H  0.49265943  0.58753980  0.78805113     0.30700
H2508       H  0.42295193  0.53115598  0.78881381     0.38300
H2509       H  0.40830077  0.66771111  0.92165504     0.30200
H2510       H  0.01681014  0.66970058  0.85583513     0.30200
H2511       H  0.43459509  0.68532776  0.78307360     0.30500
C2512       C  0.03678351  0.81794455  0.92518514     0.02600
C2513       C  0.04815649  0.83620269  0.95448643    -0.13500
C2514       C  0.03016355  0.84340787  0.97232607     0.00100
C2515       C  0.50059575  0.83234234  0.96016006    -0.12100
C2516       C  0.49019219  0.81633150  0.93016169     0.02600
C2517       C  0.00784853  0.80797577  0.91346026    -0.11500
H2518       H  0.07151832  0.84610796  0.96236661     0.08200
H2519       H  0.48731605  0.83945925  0.97186806     0.05700
H2520       H  0.00066140  0.79754979  0.88929753     0.05600
Zr2521     Zr  0.20127747  0.89554382  0.83708484     2.17500
O2522       O  0.24319383  0.94017932  0.80963464    -0.51800
O2523       O  0.23923889  0.92736718  0.88148479    -0.75000
O2524       O  0.18644156  0.92878840  0.81132625    -0.81800
O2525       O  0.23161830  0.84400923  0.82965565    -0.83600
O2526       O  0.13596557  0.90824911  0.81906377    -0.79200
O2527       O  0.23769558  0.88738762  0.81085707    -0.90800
O2528       O  0.22102575  0.90386061  0.92914081    -0.76800
O2529       O  0.16908820  0.89310432  0.87852040    -0.86300
O2530       O  0.20135857  0.86443618  0.87812451    -0.86000
O2531       O  0.15118306  0.86827733  0.81214391    -0.72700
O2532       O  0.18282312  0.84468025  0.81426982    -0.84900
Zr2533     Zr  0.09836912  0.78725485  0.87285363     2.26400
Zr2534     Zr  0.11878621  0.86611452  0.85368398     2.06300
Zr2535     Zr  0.18171213  0.81386384  0.85655277     2.10000
Zr2536     Zr  0.16939022  0.86213567  0.91935416     1.78800
O2537       O  0.18406060  0.77825052  0.82006350    -0.93700
O2538       O  0.16574373  0.90026268  0.94963133    -0.41500
O2539       O  0.14855644  0.81113772  0.89741183    -0.78100
O2540       O  0.11985376  0.83791529  0.89699940    -0.96800
O2541       O  0.09820120  0.81566963  0.82962511    -0.90100
O2542       O  0.13194072  0.78893387  0.83318463    -0.92900
C2543       C  0.24234687  0.92417266  0.91172663     1.00800
C2544       C  0.24624985  0.86901301  0.81343740     1.13700
C2545       C  0.16171922  0.92797714  0.80667304     1.04500
O2546       O  0.12391992  0.90948414  0.88347608    -0.95100
O2547       O  0.07472482  0.84427701  0.88732745    -0.90800
O2548       O  0.06142828  0.79617204  0.89921753    -0.84000
C2549       C  0.05834620  0.81884543  0.90202124     1.11200
O2550       O  0.15319935  0.84579280  0.74063225    -0.97100
Zr2551     Zr  0.13275922  0.81848615  0.79062883     1.88900
O2552       O  0.06903234  0.74733302  0.82919098    -0.73700
O2553       O  0.07408981  0.85269848  0.82184502    -0.53000
O2554       O  0.09430958  0.81886171  0.75943949    -0.97700
O2555       O  0.15536685  0.79817426  0.75697956    -0.54900
O2556       O  0.09361207  0.76515382  0.78186472    -0.74200
C2557       C  0.07325351  0.74378366  0.79924990     0.98100
O2558       O  0.05577929  0.74172788  0.89819081    -0.63100
O2559       O  0.21709812  0.81648521  0.89592148    -0.57900
O2560       O  0.10891144  0.75522824  0.90213614    -0.94500
O2561       O  0.15288521  0.76336837  0.88317074    -0.93000
O2562       O  0.19073160  0.84364176  0.95590407    -0.93300
O2563       O  0.14171613  0.84249765  0.96931587    -0.92100
C2564       C  0.12800761  0.74796863  0.89948957     1.16900
H2565       H  0.22178237  0.87213873  0.88547752     0.32900
H2566       H  0.11014879  0.83834367  0.91629145     0.43700
H2567       H  0.12596727  0.76847238  0.82629216     0.37300
H2568       H  0.15061618  0.87729573  0.79262321     0.33700
H2569       H  0.17772015  0.90470720  0.96982297     0.25500
H2570       H  0.07252837  0.87037005  0.82571987     0.31500
H2571       H  0.08509004  0.80057357  0.74432563     0.37400
H2572       H  0.20783869  0.84563943  0.94410122     0.31800
H2573       H  0.22062105  0.80094729  0.88780161     0.30700
H2574       H  0.19793518  0.77439231  0.83113100     0.32400
H2575       H  0.14001976  0.78552959  0.73954497     0.31400
H2576       H  0.12661945  0.81993918  0.96480702     0.35400
H2577       H  0.05520312  0.74854658  0.92050718     0.28100
H2578       H  0.24541698  0.95861038  0.81989970     0.32300
H2579       H  0.14022469  0.83059140  0.72299897     0.35200
H2580       H  0.23687045  0.83674896  0.89301312     0.27800
H2581       H  0.03728488  0.73762011  0.88717827     0.40700
H2582       H  0.12231941  0.90419778  0.90639338     0.30700
H2583       H  0.17815619  0.91961127  0.93768626     0.38300
H2584       H  0.15506220  0.78274816  0.77025781     0.30200
H2585       H  0.08040044  0.85436822  0.79916927     0.30200
H2586       H  0.23545763  0.93856973  0.78744790     0.30500
Zr2587     Zr  0.41082044  0.87587939  0.80285359     2.17500
O2588       O  0.42745052  0.91442022  0.76191688    -0.51800
O2589       O  0.36480216  0.87524839  0.78918628    -0.75000
O2590       O  0.42717206  0.86133728  0.75241663    -0.81800
O2591       O  0.43189878  0.92994894  0.87963700    -0.83600
O2592       O  0.39089003  0.81126319  0.75333241    -0.79200
O2593       O  0.44284433  0.92996774  0.82653470    -0.90800
O2594       O  0.32354763  0.83909047  0.81731477    -0.76800
O2595       O  0.37122905  0.82115397  0.79947114    -0.86300
O2596       O  0.37858329  0.86459773  0.84824979    -0.86000
O2597       O  0.43656586  0.84991387  0.80728508    -0.72700
O2598       O  0.44113041  0.88963448  0.85180252    -0.84900
Zr2599     Zr  0.39485434  0.79730413  0.89460976     2.26400
Zr2600     Zr  0.39620519  0.79514920  0.80438637     2.06300
Zr2601     Zr  0.40824536  0.87701061  0.89663126     2.10000
Zr2602     Zr  0.33897262  0.81034865  0.84403572     1.78800
O2603       O  0.44891018  0.90869397  0.93683801    -0.93700
O2604       O  0.30373552  0.77443351  0.80135167    -0.41500
O2605       O  0.36936402  0.82270828  0.89163018    -0.78100
O2606       O  0.36195213  0.78282323  0.84762303    -0.96800
O2607       O  0.42831119  0.80936935  0.85113280    -0.90100
O2608       O  0.43365383  0.85183251  0.90050540    -0.92900
C2609       C  0.33679446  0.86181908  0.79852282     1.00800
C2610       C  0.44507337  0.94400750  0.85376019     1.13700
C2611       C  0.41543559  0.83330796  0.74141605     1.04500
O2612       O  0.36630296  0.75346344  0.76404411    -0.95100
O2613       O  0.37354640  0.74278622  0.82071014    -0.90800
O2614       O  0.37037992  0.74376228  0.87518347    -0.84000
C2615       C  0.36550702  0.72965653  0.84776093     1.11200
O2616       O  0.00545287  0.90952430  0.82657431    -0.97100
Zr2617     Zr  0.46615589  0.86420960  0.85570561     1.88900
O2618       O  0.44045838  0.80373466  0.91806279    -0.73700
O2619       O  0.43770993  0.79191855  0.78607041    -0.53000
O2620       O  0.49773122  0.85339342  0.82423362    -0.97700
O2621       O  0.50304566  0.90598917  0.89345928    -0.54900
O2622       O  0.48161498  0.83964683  0.88974489    -0.74200
C2623       C  0.46899665  0.81946428  0.91133323     0.98100
O2624       O  0.37741395  0.76085565  0.93808097    -0.63100
O2625       O  0.37820888  0.89502511  0.91780258    -0.57900
O2626       O  0.37272851  0.80219367  0.94260605    -0.94500
O2627       O  0.38193392  0.84993116  0.94541057    -0.93000
O2628       O  0.31009581  0.81827168  0.88346039    -0.93300
O2629       O  0.29570553  0.76225122  0.86522692    -0.92100
C2630       C  0.37074176  0.82289221  0.95653587     1.16900
H2631       H  0.37092879  0.87729252  0.84936223     0.32900
H2632       H  0.34449061  0.76143724  0.84666339     0.43700
H2633       H  0.44447035  0.85689435  0.92094115     0.37300
H2634       H  0.45199284  0.85527066  0.79155454     0.33700
H2635       H  0.28504366  0.77396394  0.80400406     0.25500
H2636       H  0.42861430  0.77621475  0.76802361     0.31500
H2637       H  0.51651945  0.86191686  0.83761106     0.37400
H2638       H  0.29143537  0.81294878  0.87163436     0.31800
H2639       H  0.39195388  0.91172103  0.93394827     0.30700
H2640       H  0.43811097  0.90778172  0.95660098     0.32400
H2641       H  0.02276410  0.90575389  0.89099526     0.31400
H2642       H  0.30402814  0.75907402  0.88481211     0.35400
H2643       H  0.35555400  0.74421246  0.93321208     0.28100
H2644       H  0.41492475  0.90264417  0.74236802     0.32300
H2645       H  0.02547627  0.91388871  0.83303344     0.35200
H2646       H  0.37620595  0.90588716  0.90005118     0.27800
H2647       H  0.38812726  0.75063611  0.93545350     0.40700
H2648       H  0.34518570  0.74778825  0.76606613     0.30700
H2649       H  0.31254799  0.78532808  0.78108527     0.38300
H2650       H  0.49588665  0.89807952  0.91522977     0.30200
H2651       H  0.45258026  0.81176797  0.77586855     0.30200
H2652       H  0.44851986  0.92127939  0.75667677     0.30500
C2653       C  0.30996146  0.90306901  0.75141950     0.02600
C2654       C  0.32753955  0.89279419  0.76209233    -0.13500
C2655       C  0.31858268  0.87375040  0.78849446     0.00100
C2656       C  0.29185495  0.86583423  0.80520834    -0.12100
C2657       C  0.27458522  0.87715711  0.79593782     0.02600
C2658       C  0.28413903  0.89591608  0.76895674    -0.11500
H2659       H  0.34712394  0.89784511  0.74847922     0.08200
H2660       H  0.28470610  0.85121300  0.82577263     0.05700
H2661       H  0.27053377  0.90375766  0.76057233     0.05600
C2662       C  0.30897488  0.94566640  0.96722822     0.02600
C2663       C  0.32990014  0.97692034  0.96003763    -0.13500
C2664       C  0.32221001  0.99075676  0.93693937     0.00100
C2665       C  0.29361591  0.97349990  0.92112905    -0.12100
C2666       C  0.27266004  0.94262388  0.92783023     0.02600
C2667       C  0.28041686  0.92871240  0.95059976    -0.11500
H2668       H  0.35203915  0.49020729  0.97251862     0.08200
H2669       H  0.28786589  0.98381344  0.90297742     0.05700
H2670       H  0.26380490  0.90449471  0.95567974     0.05600
C2671       C  0.16125390  0.95033498  0.78595928     0.02600
C2672       C  0.13896866  0.93989170  0.76045066    -0.13500
C2673       C  0.13319738  0.96034628  0.74603740     0.00100
C2674       C  0.15041760  0.99128309  0.75759373    -0.12100
C2675       C  0.17252048  0.50183713  0.78278937     0.02600
C2676       C  0.17787751  0.98138610  0.79645420    -0.11500
H2677       H  0.12624697  0.91589371  0.75173951     0.08200
H2678       H  0.14726113  0.50756841  0.74653603     0.05700
H2679       H  0.19354696  0.98928491  0.81700652     0.05600
C2680       C  0.34153424  0.64766243  0.83563472     0.02600
C2681       C  0.30990421  0.63118716  0.83949247    -0.13500
C2682       C  0.29703067  0.64700596  0.84796390     0.00100
C2683       C  0.31560837  0.67934721  0.85240329    -0.12100
C2684       C  0.34699854  0.69593948  0.84677195     0.02600
C2685       C  0.35993292  0.68020906  0.83803614    -0.11500
H2686       H  0.29538443  0.60605043  0.83686221     0.08200
H2687       H  0.30543931  0.69165860  0.85855155     0.05700
H2688       H  0.38443522  0.69331367  0.83455390     0.05600
C2689       C  0.50623878  0.48346496  0.11958310     0.02600
C2690       C  0.52153964  0.01560081  0.11484522    -0.13500
C2691       C  0.50582831  0.02801836  0.10511435     0.00100
C2692       C  0.97433215  0.00860700  0.09986684    -0.12100
C2693       C  0.95776955  0.47681227  0.10578937     0.02600
C2694       C  0.97407035  0.46437641  0.11596336    -0.11500
H2695       H  0.54628835  0.03093876  0.11791411     0.08200
H2696       H  0.96223708  0.01863206  0.09316217     0.05700
H2697       H  0.96180632  0.43972822  0.11956952     0.05600
C2698       C  0.63002073  0.35439989  0.08777525     0.02600
C2699       C  0.66202737  0.37520268  0.09198938    -0.13500
C2700       C  0.67894260  0.36547403  0.10601601     0.00100
C2701       C  0.66393045  0.33468782  0.11511000    -0.12100
C2702       C  0.63243479  0.31348811  0.10905447     0.02600
C2703       C  0.61549683  0.32350848  0.09605178    -0.11500
H2704       H  0.67376872  0.39906845  0.08502078     0.08200
H2705       H  0.67718076  0.32657189  0.12396456     0.05700
H2706       H  0.59100478  0.30702899  0.09190026     0.05600
C2707       C  0.85466080  0.31482052  0.48683341     0.02600
C2708       C  0.85012572  0.33566873  0.00244209    -0.13500
C2709       C  0.83359764  0.32781011  0.03074581     0.00100
C2710       C  0.82040305  0.29814399  0.04312154    -0.12100
C2711       C  0.82470731  0.27689962  0.02816693     0.02600
C2712       C  0.84163360  0.28521832  0.99984845    -0.11500
H2713       H  0.85967689  0.35827407  0.49253830     0.08200
H2714       H  0.80897671  0.29241125  0.06602232     0.05700
H2715       H  0.84732357  0.26992496  0.48957964     0.05600
Zr2716     Zr  0.60469125  0.42119186  0.05120676     2.17500
O2717       O  0.63769411  0.42665043  0.00739144    -0.51800
O2718       O  0.57154677  0.38451022  0.00696744    -0.75000
O2719       O  0.62454791  0.39092184  0.06298199    -0.81800
O2720       O  0.60731552  0.48724781  0.02888130    -0.83600
O2721       O  0.58435190  0.35191881  0.08894331    -0.79200
O2722       O  0.64069353  0.47506741  0.03281111    -0.90800
O2723       O  0.52263767  0.36436558  0.02077332    -0.76800
O2724       O  0.55766864  0.37829805  0.07240439    -0.86300
O2725       O  0.56827312  0.43396306  0.04705185    -0.86000
O2726       O  0.61534597  0.41699128  0.10723562    -0.72700
O2727       O  0.62505366  0.46835252  0.08319125    -0.84900
Zr2728     Zr  0.55551354  0.43491006  0.15902908     2.26400
Zr2729     Zr  0.56734918  0.37432027  0.12792939     2.06300
Zr2730     Zr  0.58753696  0.47931018  0.08239457     2.10000
Zr2731     Zr  0.52288050  0.39222000  0.06940526     1.78800
O2732       O  0.63043789  0.03080108  0.10149397    -0.93700
O2733       O  0.98127140  0.33775331  0.07703431    -0.41500
O2734       O  0.54687754  0.43598080  0.10412796    -0.78100
O2735       O  0.53156382  0.38783672  0.12452225    -0.96800
O2736       O  0.59052852  0.42123357  0.15926396    -0.88500
O2737       O  0.60098207  0.47858208  0.13741578    -0.92900
C2738       C  0.54242253  0.36554699  0.00197278     1.00800
C2739       C  0.63412242  0.49413933  0.02514617     1.13700
C2740       C  0.61159806  0.36569731  0.07829013     1.04500
O2741       O  0.53808929  0.31807379  0.13044757    -0.95100
O2742       O  0.52546027  0.35058664  0.16759416    -0.90800
O2743       O  0.51829562  0.38723012  0.18523608    -0.84000
C2744       C  0.51080968  0.35929501  0.18401729     1.11200
O2745       O  0.68446142  0.49488312  0.10903727    -0.97100
Zr2746     Zr  0.63630331  0.46433928  0.13731312     1.88900
O2747       O  0.59356742  0.45239392  0.20726368    -0.73700
O2748       O  0.60043699  0.37378928  0.16787569    -0.53000
O2749       O  0.67707355  0.45808469  0.14972787    -0.97700
O2750       O  0.66220680  0.01633389  0.16244653    -0.54900
O2751       O  0.63301049  0.45044949  0.19167077    -0.74200
C2752       C  0.61812304  0.45316626  0.21359451     0.98100
O2753       O  0.03776634  0.44910263  0.20637627    -0.63100
O2754       O  0.58310664  0.51749227  0.05630836    -0.57900
O2755       O  0.52689699  0.45798219  0.14560702    -0.94500
O2756       O  0.54421314  0.48006120  0.09716744    -0.93000
O2757       O  0.50517815  0.41166127  0.02930532    -0.93300
O2758       O  0.97270406  0.38239853  0.07825985    -0.92100
C2759       C  0.52635428  0.47231683  0.12110879     1.16900
H2760       H  0.56404666  0.43584393  0.02496331     0.32900
H2761       H  0.51065505  0.37191206  0.12940431     0.43700
H2762       H  0.60758533  0.49728947  0.14987853     0.37300
H2763       H  0.63123482  0.41402309  0.11147377     0.33700
H2764       H  0.97087130  0.32981507  0.05564095     0.25500
H2765       H  0.58622245  0.35923851  0.18406916     0.31500
H2766       H  0.68969803  0.47401487  0.16696793     0.37400
H2767       H  0.99715919  0.39732929  0.01179989     0.31800
H2768       H  0.60378188  0.53322054  0.04827538     0.30700
H2769       H  0.64899968  0.03200385  0.09538076     0.32400
H2770       H  0.68312444  0.02249288  0.16785168     0.31400
H2771       H  0.97350901  0.38899859  0.10104062     0.35400
H2772       H  0.04733678  0.47166445  0.20536175     0.28100
H2773       H  0.63001826  0.40519403  0.00021754     0.32300
H2774       H  0.68859327  0.51567106  0.10748783     0.35200
H2775       H  0.57038030  0.50665346  0.03659850     0.27800
H2776       H  0.01551562  0.43894155  0.20293333     0.40700
H2777       H  0.52014694  0.31013161  0.11586475     0.30700
H2778       H  0.49240839  0.32716571  0.07837012     0.38300
H2779       H  0.65250462  0.01322331  0.18359822     0.30200
H2780       H  0.60809109  0.36269263  0.15677005     0.30200
H2781       H  0.65784468  0.43504645  0.01785794     0.30500
C2782       C  0.66864602  0.07262162  0.49001537     0.02600
C2783       C  0.69560368  0.09091734  0.50870012    -0.13500
C2784       C  0.70442473  0.07775449  0.03120784     0.00100
C2785       C  0.68569334  0.04525218  0.03436503    -0.12100
C2786       C  0.65810948  0.02648120  0.01598675     0.02600
C2787       C  0.64979171  0.04051060  0.49437344    -0.11500
H2788       H  0.71011547  0.11565344  0.50498794     0.08200
H2789       H  0.69133501  0.03493790  0.05254980     0.05700
H2790       H  0.62866088  0.02612525  0.48029540     0.05600
C2791       C  0.93237134  0.32429058  0.21994109     0.02600
C2792       C  0.91685904  0.29402440  0.20552635    -0.13500
C2793       C  0.93222776  0.28406847  0.18708068     0.00100
C2794       C  0.96398293  0.30465808  0.18386559    -0.12100
C2795       C  0.98017439  0.33528046  0.19720557     0.02600
C2796       C  0.96418426  0.34458709  0.21572993    -0.11500
H2797       H  0.89212480  0.27856211  0.20683716     0.08200
H2798       H  0.97520798  0.29817542  0.16723996     0.05700
H2799       H  0.97636653  0.36803284  0.22601700     0.05600
Zr2800     Zr  0.87688630  0.18135505  0.12817536     2.17500
O2801       O  0.91979824  0.18975843  0.15972900    -0.51800
O2802       O  0.90835848  0.17575254  0.08863126    -0.75000
O2803       O  0.86115808  0.13319092  0.15485397    -0.81800
O2804       O  0.90226899  0.26763894  0.14109044    -0.83600
O2805       O  0.81463592  0.09473754  0.13286428    -0.79200
O2806       O  0.90868253  0.23207250  0.16155246    -0.90800
O2807       O  0.88558167  0.16231025  0.03894564    -0.76800
O2808       O  0.84524271  0.14632401  0.08430585    -0.86300
O2809       O  0.88312177  0.21203672  0.08361004    -0.86000
O2810       O  0.82444909  0.15044943  0.14642196    -0.72700
O2811       O  0.85856914  0.21143669  0.14453941    -0.84900
Zr2812     Zr  0.78057978  0.17731617  0.07820512     2.26400
Zr2813     Zr  0.79324684  0.11613834  0.10133088     2.06300
Zr2814     Zr  0.86343780  0.24115933  0.10032319     2.10000
Zr2815     Zr  0.85066400  0.17710401  0.04062961     1.78800
O2816       O  0.86377499  0.28349324  0.12618314    -0.93700
O2817       O  0.83013542  0.13375816  0.00148595    -0.41500
O2818       O  0.83141293  0.20646213  0.05738334    -0.78100
O2819       O  0.79876072  0.14718828  0.05724996    -0.96800
O2820       O  0.77685968  0.14693068  0.12118156    -0.90100
O2821       O  0.81240919  0.21308919  0.12077089    -0.92900
C2822       C  0.90598421  0.16650105  0.05883163     1.00800
C2823       C  0.91395755  0.25954701  0.16154550     1.13700
C2824       C  0.83803737  0.10450922  0.15144666     1.04500
O2825       O  0.79134220  0.07622321  0.06787258    -0.95100
O2826       O  0.74471956  0.08939393  0.06916924    -0.90800
O2827       O  0.74196987  0.12815144  0.05165594    -0.84000
C2828       C  0.73192055  0.09941495  0.05235059     1.11200
O2829       O  0.84347825  0.20453697  0.21057419    -0.97100
Zr2830     Zr  0.80827780  0.18214086  0.16408928     1.88900
O2831       O  0.74014536  0.16367699  0.11799535    -0.73700
O2832       O  0.75218020  0.07904057  0.13585709    -0.53000
O2833       O  0.78872784  0.14462962  0.20656896    -0.97700
O2834       O  0.80384528  0.22155919  0.18992539    -0.54900
O2835       O  0.75446732  0.15659647  0.16629743    -0.74200
C2836       C  0.73444857  0.15401580  0.14712098     0.98100
O2837       O  0.74034489  0.17639718  0.04886402    -0.63100
O2838       O  0.90898205  0.27677786  0.06984440    -0.57900
O2839       O  0.79724232  0.22625237  0.05118621    -0.94500
O2840       O  0.84793570  0.26240056  0.06211586    -0.93000
O2841       O  0.89397089  0.22231332  0.01548293    -0.93300
O2842       O  0.83798816  0.18558648  0.98751332    -0.92100
C2843       C  0.82269590  0.25327269  0.04813462     1.16900
H2844       H  0.90435627  0.22509549  0.07767983     0.32900
H2845       H  0.78788557  0.13466620  0.03811318     0.43700
H2846       H  0.80640872  0.22674074  0.12650369     0.37300
H2847       H  0.82162624  0.13917869  0.16545285     0.33700
H2848       H  0.84725742  0.13982618  0.98691013     0.25500
H2849       H  0.74962120  0.05915367  0.13094886     0.31500
H2850       H  0.77733974  0.14988248  0.22080526     0.37400
H2851       H  0.90136771  0.21367031  0.99973050     0.31800
H2852       H  0.91133191  0.29682238  0.07164101     0.30700
H2853       H  0.88031194  0.30242254  0.11565414     0.32400
H2854       H  0.79670395  0.21416532  0.21186915     0.31400
H2855       H  0.82314701  0.19080674  0.99155477     0.35400
H2856       H  0.74004624  0.19374326  0.05820515     0.28100
H2857       H  0.92234967  0.17346391  0.15184303     0.32300
H2858       H  0.83054654  0.19911486  0.22971732     0.35200
H2859       H  0.92630260  0.28025895  0.08288770     0.27800
H2860       H  0.74739252  0.18207670  0.02652421     0.40700
H2861       H  0.81289286  0.08303152  0.06671380     0.30700
H2862       H  0.82760616  0.11668675  0.01382025     0.38300
H2863       H  0.78600424  0.21914688  0.17914541     0.30200
H2864       H  0.76123172  0.08528013  0.15794876     0.30200
H2865       H  0.91206483  0.18385670  0.18183143     0.30500
Zr2866     Zr  0.85512465  0.42806289  0.05786457     2.17500
O2867       O  0.88985209  0.44267553  0.01305174    -0.51800
O2868       O  0.84663337  0.37903196  0.03953306    -0.75000
O2869       O  0.90924193  0.45377506  0.07766579    -0.81800
O2870       O  0.79075541  0.40765448  0.00611750    -0.83600
O2871       O  0.91047049  0.45189345  0.13235142    -0.79200
O2872       O  0.84079942  0.44511104  0.00971320    -0.90800
O2873       O  0.81236124  0.34034961  0.07147467    -0.76800
O2874       O  0.84594194  0.40052224  0.10622355    -0.86300
O2875       O  0.80150462  0.38640039  0.05876630    -0.86000
O2876       O  0.87024177  0.46540570  0.10198565    -0.72700
O2877       O  0.82757660  0.45140836  0.05725040    -0.84900
Zr2878     Zr  0.78135948  0.42130275  0.15089435     2.26400
Zr2879     Zr  0.86043208  0.43719495  0.15033392     2.06300
Zr2880     Zr  0.77427045  0.40982218  0.05920305     2.10000
Zr2881     Zr  0.79241487  0.36009693  0.10719993     1.78800
O2882       O  0.76567847  0.44392143  0.03064249    -0.93700
O2883       O  0.80863621  0.33498574  0.14124202    -0.41500
O2884       O  0.76485330  0.38296503  0.10785760    -0.78100
O2885       O  0.80697714  0.39560779  0.15135343    -0.96800
O2886       O  0.83466175  0.46214775  0.14963220    -0.90100
O2887       O  0.78829020  0.44705253  0.10201706    -0.92900
C2888       C  0.83087970  0.35069842  0.04829027     1.00800
C2889       C  0.81444066  0.43172705  0.99501946     1.13700
C2890       C  0.92351653  0.45863451  0.10494303     1.04500
O2891       O  0.87825790  0.41008065  0.17790766    -0.95100
O2892       O  0.84111457  0.42620970  0.20544788    -0.90800
O2893       O  0.79165962  0.41100713  0.20395784    -0.84000
C2894       C  0.81504327  0.41524366  0.21862843     1.11200
O2895       O  0.88752066  0.02837594  0.07352736    -0.97100
Zr2896     Zr  0.84187697  0.48776152  0.10069539     1.88900
O2897       O  0.79740751  0.47257366  0.17153081    -0.73700
O2898       O  0.89613205  0.48616925  0.17982365    -0.53000
O2899       O  0.87727913  0.02815713  0.14057309    -0.97700
O2900       O  0.83182508  0.01432180  0.06153389    -0.54900
O2901       O  0.81044022  0.50004151  0.12712211    -0.74200
C2902       C  0.80613014  0.49741649  0.15717844     0.98100
O2903       O  0.74532054  0.41199684  0.19294700    -0.63100
O2904       O  0.73127833  0.36411087  0.03053792    -0.57900
O2905       O  0.72745680  0.39107652  0.13252431    -0.94500
O2906       O  0.72460995  0.39307309  0.07812424    -0.93000
O2907       O  0.74756689  0.31922715  0.07591820    -0.93300
O2908       O  0.75274034  0.32032009  0.14099437    -0.92100
C2909       C  0.71250812  0.38516674  0.10579764     1.16900
H2910       H  0.79500030  0.37215711  0.04034279     0.32900
H2911       H  0.80206302  0.38225858  0.16910241     0.43700
H2912       H  0.77468337  0.45350127  0.10041389     0.37300
H2913       H  0.89149694  0.48273099  0.10128794     0.33700
H2914       H  0.79993783  0.31438530  0.13052988     0.25500
H2915       H  0.90777079  0.48167282  0.19427609     0.31500
H2916       H  0.87387575  0.04465445  0.13882453     0.37400
H2917       H  0.75003983  0.30202220  0.07376309     0.31800
H2918       H  0.72909499  0.37187688  0.01008183     0.30700
H2919       H  0.74919793  0.43010195  0.01457168     0.32400
H2920       H  0.83711407  0.03367035  0.07291607     0.31400
H2921       H  0.74416463  0.33048815  0.15218390     0.35400
H2922       H  0.73427841  0.42074114  0.18536679     0.28100
H2923       H  0.90114033  0.43334085  0.01712484     0.32300
H2924       H  0.89151242  0.04832628  0.08148710     0.35200
H2925       H  0.73886870  0.35146032  0.02413633     0.27800
H2926       H  0.72975749  0.38924664  0.19292172     0.40700
H2927       H  0.85938033  0.38954835  0.18245122     0.30700
H2928       H  0.83098135  0.34654097  0.13810911     0.38300
H2929       H  0.80804045  0.50034210  0.05896371     0.30200
H2930       H  0.91111839  0.49991187  0.16365686     0.30200
H2931       H  0.90533626  0.46534243  0.01623899     0.30500
C2932       C  0.83673871  0.08051437  0.17058917     0.02600
C2933       C  0.81797663  0.04970561  0.15902707    -0.13500
C2934       C  0.81585606  0.02586798  0.17546244     0.00100
C2935       C  0.83079552  0.03230284  0.20536440    -0.12100
C2936       C  0.84950803  0.06291273  0.21795086     0.02600
C2937       C  0.85265073  0.08715909  0.20014111    -0.11500
H2938       H  0.80642201  0.04434422  0.13573792     0.08200
H2939       H  0.82958643  0.01382122  0.21767648     0.05700
H2940       H  0.86702153  0.11100772  0.20933818     0.05600
C2941       C  0.66760852  0.11099581  0.20430608     0.02600
C2942       C  0.69626700  0.12377400  0.18996818    -0.13500
C2943       C  0.70314792  0.13825898  0.16009216     0.00100
C2944       C  0.68056221  0.13876327  0.14405448    -0.12100
C2945       C  0.65206926  0.12658015  0.15824788     0.02600
C2946       C  0.64550227  0.11223264  0.18793455    -0.11500
H2947       H  0.71375492  0.12342332  0.20271727     0.08200
H2948       H  0.68595437  0.15051437  0.12152619     0.05700
H2949       H  0.62378334  0.10358736  0.19911382     0.05600
Zr2950     Zr  0.56680957  0.13147758  0.14962854     2.17500
O2951       O  0.54984711  0.09620477  0.19404505    -0.51800
O2952       O  0.61045321  0.13065428  0.16223428    -0.75000
O2953       O  0.53493636  0.07749629  0.13019072    -0.81800
O2954       O  0.59423545  0.19703126  0.20741206    -0.83600
O2955       O  0.52603664  0.07397260  0.07597845    -0.79200
O2956       O  0.55447560  0.14704713  0.20007271    -0.90800
O2957       O  0.63704154  0.14422943  0.11644846    -0.76800
O2958       O  0.58876012  0.13493046  0.09850000    -0.86300
O2959       O  0.61405835  0.18226710  0.14975291    -0.86000
O2960       O  0.52951779  0.12230443  0.10954088    -0.72700
O2961       O  0.55366224  0.16745144  0.15590604    -0.84900
Zr2962     Zr  0.58333235  0.21204436  0.06450356     2.26400
Zr2963     Zr  0.55276399  0.12735791  0.05807989     2.06300
Zr2964     Zr  0.60040846  0.21808041  0.15464779     2.10000
Zr2965     Zr  0.63512795  0.18578360  0.09853003     1.78800
O2966       O  0.57757577  0.23782296  0.18855698    -0.93700
O2967       O  0.65598707  0.17329970  0.05350059    -0.41500
O2968       O  0.62211271  0.22222456  0.10312397    -0.78100
O2969       O  0.59989550  0.17838424  0.05844429    -0.96800
O2970       O  0.53703773  0.16119052  0.06553735    -0.90100
O2971       O  0.56279240  0.20961928  0.11627653    -0.92900
C2972       C  0.63153599  0.13357291  0.14461664     1.00800
C2973       C  0.56929372  0.17276598  0.21691183     1.13700
C2974       C  0.52314384  0.06196737  0.10344309     1.04500
O2975       O  0.57071563  0.10053297  0.02805334    -0.95100
O2976       O  0.56800487  0.14964690  0.00395082    -0.90800
O2977       O  0.58689123  0.20091381  0.00860594    -0.84000
C2978       C  0.58067601  0.17685059  0.99219599     1.11200
O2979       O  0.97635582  0.11838970  0.15007140    -0.97100
Zr2980     Zr  0.51661951  0.15854145  0.11750796     1.88900
O2981       O  0.53463217  0.20011226  0.04490113    -0.73700
O2982       O  0.50473277  0.10047621  0.02715936    -0.53000
O2983       O  0.96979295  0.12401023  0.08529091    -0.97700
O2984       O  0.99965995  0.17737222  0.16042087    -0.54900
O2985       O  0.51219134  0.19547229  0.09138795    -0.74200
C2986       C  0.51152100  0.19411556  0.06094144     0.98100
O2987       O  0.61156585  0.25266052  0.02560712    -0.63100
O2988       O  0.65096815  0.25365430  0.17984935    -0.57900
O2989       O  0.60319811  0.26371700  0.08551887    -0.94500
O2990       O  0.62227191  0.26998934  0.13642384    -0.93000
O2991       O  0.67885606  0.21379456  0.13603636    -0.93300
O2992       O  0.67928081  0.22974373  0.07292559    -0.92100
C2993       C  0.61822618  0.28025246  0.11078180     1.16900
H2994       H  0.62777105  0.18575270  0.16724136     0.32900
H2995       H  0.61163977  0.18217599  0.03938646     0.43700
H2996       H  0.55926212  0.22547545  0.12013481     0.37300
H2997       H  0.51032867  0.10222733  0.11119561     0.33700
H2998       H  0.67250196  0.17255368  0.06318594     0.25500
H2999       H  0.50482666  0.08473925  0.01360256     0.31500
H3000       H  0.95484622  0.12755456  0.09432263     0.37400
H3001       H  0.69125724  0.20581710  0.13063676     0.31800
H3002       H  0.65447984  0.24047601  0.19278260     0.30700
H3003       H  0.59506692  0.25577593  0.20085725     0.32400
H3004       H  0.00964172  0.19962135  0.15641795     0.31400
H3005       H  0.67040912  0.23683837  0.05773035     0.35400
H3006       H  0.60152606  0.26362514  0.02465358     0.28100
H3007       H  0.55630528  0.08234543  0.18878325     0.32300
H3008       H  0.98743789  0.11650551  0.16791963     0.35200
H3009       H  0.66538187  0.26012462  0.16188171     0.27800
H3010       H  0.63214246  0.26794315  0.03541547     0.40700
H3011       H  0.58278291  0.09789750  0.04398868     0.30700
H3012       H  0.63968757  0.15142829  0.04719116     0.38300
H3013       H  0.51089336  0.17775126  0.18050863     0.30200
H3014       H  0.48869712  0.08830148  0.04312884     0.30200
H3015       H  0.02657967  0.08164190  0.19084138     0.30500
C3016       C  0.92893170  0.16164984  0.04576119     0.02600
C3017       C  0.95854171  0.17915424  0.05915473    -0.13500
C3018       C  0.98193861  0.17877552  0.04458204     0.00100
C3019       C  0.97554043  0.15945644  0.01730327    -0.12100
C3020       C  0.94615939  0.14115053  0.50385187     0.02600
C3021       C  0.92277535  0.14252069  0.01780901    -0.11500
H3022       H  0.96374070  0.19394977  0.08047035     0.08200
H3023       H  0.99387631  0.15951489  0.50605845     0.05700
H3024       H  0.90076396  0.13099124  0.50574249     0.05600
C3025       C  0.97812150  0.02967653  0.37391747     0.02600
C3026       C  0.95686692  0.49712893  0.36866925    -0.13500
C3027       C  0.96664989  0.47868177  0.35666875     0.00100
C3028       C  0.49759656  0.99284047  0.35033661    -0.12100
C3029       C  0.51886650  0.02480183  0.35699176     0.02600
C3030       C  0.50890925  0.04263703  0.36858095    -0.11500
H3031       H  0.93272476  0.48647360  0.37241719     0.08200
H3032       H  0.50590584  0.47927496  0.34199441     0.05700
H3033       H  0.52542499  0.06753318  0.37238043     0.05600
Zr3034     Zr  0.62091116  0.08280711  0.39880433     2.17500
O3035       O  0.58084972  0.06310463  0.43876973    -0.51800
O3036       O  0.61925906  0.12733407  0.41450407    -0.75000
O3037       O  0.63566538  0.07267107  0.45052345    -0.81800
O3038       O  0.56337005  0.04616901  0.32573976    -0.83600
O3039       O  0.68567458  0.11026201  0.45035224    -0.79200
O3040       O  0.56764343  0.04975018  0.38059050    -0.90800
O3041       O  0.65141888  0.16803376  0.38364216    -0.76800
O3042       O  0.67277838  0.12754928  0.39902318    -0.86300
O3043       O  0.62634932  0.10946720  0.35087579    -0.86000
O3044       O  0.65101216  0.06150300  0.39761072    -0.72700
O3045       O  0.60823005  0.04718707  0.35347139    -0.84900
Zr3046     Zr  0.69865509  0.10037924  0.30645157     2.26400
Zr3047     Zr  0.70279282  0.10688358  0.39761532     2.06300
Zr3048     Zr  0.61545508  0.07498780  0.30557112     2.10000
Zr3049     Zr  0.67820885  0.15366660  0.35086997     1.78800
O3050       O  0.58294764  0.03073922  0.26842560    -0.93700
O3051       O  0.71757562  0.19862737  0.38366504    -0.41500
O3052       O  0.66749072  0.11953882  0.30592914    -0.78100
O3053       O  0.71030855  0.13598983  0.35091880    -0.96800
O3054       O  0.69194379  0.07197039  0.35326699    -0.90100
O3055       O  0.64624074  0.05566533  0.30401302    -0.92900
C3056       C  0.63110697  0.15507044  0.40507383     1.00800
C3057       C  0.55200015  0.04054028  0.35402473     1.13700
C3058       C  0.66269631  0.08655906  0.46310017     1.04500
O3059       O  0.74439341  0.14267761  0.43536551    -0.95100
O3060       O  0.75395461  0.13315360  0.37705186    -0.90800
O3061       O  0.74826050  0.11473473  0.32533728    -0.84000
C3062       C  0.76445204  0.13031799  0.35052283     1.11200
O3063       O  0.61325396  0.49449462  0.39614414    -0.97100
Zr3064     Zr  0.63959624  0.02837904  0.35126858     1.88900
O3065       O  0.69374838  0.05586242  0.28129588    -0.73700
O3066       O  0.71061681  0.06930461  0.41871551    -0.53000
O3067       O  0.63289651  0.97865732  0.35405518    -0.97700
O3068       O  0.59761253  0.49330012  0.31347072    -0.54900
O3069       O  0.68428889  0.03459122  0.32850231    -0.74200
C3070       C  0.68579618  0.03268762  0.29809303     0.98100
O3071       O  0.74168184  0.14146422  0.27610749    -0.63100
O3072       O  0.59482155  0.10244765  0.28515329    -0.57900
O3073       O  0.68538994  0.10296956  0.25203331    -0.94500
O3074       O  0.63733845  0.09157444  0.25177713    -0.93000
O3075       O  0.65750865  0.17232187  0.31354892    -0.93300
O3076       O  0.71838080  0.19548957  0.31920637    -0.92100
C3077       C  0.66274267  0.10056553  0.23798644     1.16900
H3078       H  0.61227356  0.11538219  0.35049501     0.32900
H3079       H  0.73101202  0.15433267  0.34962315     0.43700
H3080       H  0.64139922  0.04306511  0.28450715     0.37300
H3081       H  0.64861592  0.04889020  0.41523207     0.33700
H3082       H  0.71205236  0.21360684  0.38296543     0.25500
H3083       H  0.73194704  0.07735972  0.41316011     0.31500
H3084       H  0.62726990  0.46828690  0.33919253     0.37400
H3085       H  0.66320396  0.19242770  0.32328445     0.31800
H3086       H  0.58323182  0.09057017  0.26522201     0.30700
H3087       H  0.57338502  0.03761376  0.25393781     0.32400
H3088       H  0.58217004  0.47588711  0.32658768     0.31400
H3089       H  0.71988131  0.18485240  0.30000938     0.35400
H3090       H  0.73407969  0.15232220  0.26522418     0.28100
H3091       H  0.59027834  0.07779128  0.45766908     0.32300
H3092       H  0.59263654  0.49030521  0.39559973     0.35200
H3093       H  0.57888799  0.09855539  0.30048734     0.27800
H3094       H  0.75656037  0.15719390  0.29238157     0.40700
H3095       H  0.74608631  0.16234674  0.43420614     0.30700
H3096       H  0.71355477  0.19156826  0.40606121     0.38300
H3097       H  0.60379059  0.98838370  0.29702099     0.30200
H3098       H  0.71132672  0.07243384  0.44241171     0.30200
H3099       H  0.57719008  0.04353332  0.44602817     0.30500
C3100       C  0.59289795  0.18240114  0.45903233     0.02600
C3101       C  0.60125194  0.20966848  0.44351919    -0.13500
C3102       C  0.61988165  0.21966307  0.41622722     0.00100
C3103       C  0.62966313  0.20166212  0.40435931    -0.12100
C3104       C  0.62061709  0.17368670  0.41872934     0.02600
C3105       C  0.60202793  0.16414024  0.44583739    -0.11500
H3106       H  0.59424288  0.22385092  0.45351693     0.08200
H3107       H  0.64376551  0.20917139  0.38323600     0.05700
H3108       H  0.59623472  0.14348520  0.45778307     0.05600
C3109       C  0.55451967  0.17656243  0.24488819     0.02600
C3110       C  0.57079253  0.20436395  0.26355836    -0.13500
C3111       C  0.55546250  0.21304040  0.28347828     0.00100
C3112       C  0.52380796  0.19370635  0.28512915    -0.12100
C3113       C  0.50739163  0.16510567  0.26791591     0.02600
C3114       C  0.52270604  0.15620765  0.24837820    -0.11500
H3115       H  0.59540148  0.22028681  0.26118817     0.08200
H3116       H  0.51212195  0.20096057  0.29989552     0.05700
H3117       H  0.00948009  0.13460483  0.23407359     0.05600
Zr3118     Zr  0.91193800  0.12560222  0.30674876     2.17500
O3119       O  0.91567525  0.16538849  0.27412563    -0.51800
O3120       O  0.88215286  0.09800107  0.25924921    -0.75000
O3121       O  0.95913107  0.15483481  0.27787488    -0.81800
O3122       O  0.84155736  0.10387131  0.34324467    -0.83600
O3123       O  0.96413912  0.11630309  0.27973830    -0.79200
O3124       O  0.88376515  0.14610457  0.32342390    -0.90800
O3125       O  0.86290938  0.04737027  0.26512671    -0.76800
O3126       O  0.92425836  0.08869703  0.30017399    -0.86300
O3127       O  0.86734569  0.07692880  0.32277702    -0.86000
O3128       O  0.95748740  0.14571586  0.33974056    -0.72700
O3129       O  0.90364452  0.13335342  0.36177687    -0.84900
Zr3130     Zr  0.92089895  0.07132240  0.40832215     2.26400
Zr3131     Zr  0.96805504  0.10705514  0.33524674     2.06300
Zr3132     Zr  0.86153330  0.08364657  0.37874375     2.10000
Zr3133     Zr  0.88061333  0.04157170  0.31766614     1.78800
O3134       O  0.85482751  0.11145700  0.42202596    -0.93700
O3135       O  0.90232251  0.02329069  0.27955998    -0.41500
O3136       O  0.87999830  0.05419498  0.37179520    -0.78100
O3137       O  0.92390950  0.05893250  0.35234562    -0.96800
O3138       O  0.96402176  0.11893329  0.39049945    -0.90100
O3139       O  0.90535894  0.10555705  0.41258384    -0.92900
C3140       C  0.86600179  0.06969605  0.24929908     1.00800
C3141       C  0.85627455  0.13145946  0.33315140     1.13700
C3142       C  0.97485714  0.14401118  0.27290990     1.04500
O3143       O  0.00437124  0.10322759  0.30386054    -0.95100
O3144       O  0.97824579  0.07065038  0.35394787    -0.90800
O3145       O  0.94984307  0.04804997  0.39812285    -0.84000
C3146       C  0.96858600  0.05111037  0.37639145     1.11200
O3147       O  0.97683620  0.20627230  0.37412682    -0.97100
Zr3148     Zr  0.94864648  0.15373156  0.39401438     1.88900
O3149       O  0.93685451  0.10403844  0.46039276    -0.73700
O3150       O  0.51932415  0.15242291  0.34992807    -0.53000
O3151       O  0.00094777  0.18100354  0.41517495    -0.97700
O3152       O  0.92968662  0.18396991  0.41281654    -0.54900
O3153       O  0.94751777  0.15145923  0.45065316    -0.74200
C3154       C  0.94335969  0.13108003  0.46969333     0.98100
O3155       O  0.92650403  0.04702838  0.45446689    -0.63100
O3156       O  0.80573577  0.05235081  0.38115415    -0.57900
O3157       O  0.87335522  0.03037292  0.42836751    -0.94500
O3158       O  0.83729656  0.03650136  0.40958208    -0.93000
O3159       O  0.82546065  0.00280908  0.31956348    -0.93300
O3160       O  0.86324841  0.48815810  0.32542198    -0.92100
C3161       C  0.84580841  0.02169990  0.42495630     1.16900
H3162       H  0.84892873  0.06990843  0.31048609     0.32900
H3163       H  0.92414584  0.04094874  0.34898847     0.43700
H3164       H  0.89795238  0.10627639  0.43348495     0.37300
H3165       H  0.97463141  0.16559586  0.33301168     0.33700
H3166       H  0.90653689  0.03533778  0.26002916     0.25500
H3167       H  0.53096772  0.15864376  0.32977513     0.31500
H3168       H  0.00278229  0.19560300  0.43220499     0.37400
H3169       H  0.81958892  0.00656673  0.34084450     0.31800
H3170       H  0.80060124  0.06729575  0.38640874     0.30700
H3171       H  0.85069220  0.12506482  0.41087670     0.32400
H3172       H  0.94286414  0.19651616  0.43175076     0.31400
H3173       H  0.86509486  0.48687483  0.34893982     0.35400
H3174       H  0.91885142  0.52525068  0.44733116     0.28100
H3175       H  0.91984993  0.16157866  0.25192039     0.32300
H3176       H  0.98547497  0.22043422  0.39347693     0.35200
H3177       H  0.79831104  0.04514376  0.35862324     0.27800
H3178       H  0.94882377  0.05786307  0.45831111     0.40700
H3179       H  0.99154911  0.08598477  0.28785507     0.30700
H3180       H  0.92284338  0.03115979  0.28863339     0.38300
H3181       H  0.90950574  0.16857980  0.42201259     0.30200
H3182       H  0.51711441  0.16943091  0.35537530     0.30200
H3183       H  0.93469305  0.18529203  0.28164512     0.30500
C3184       C  0.53711356  0.31851239  0.42522111     0.02600
C3185       C  0.54836754  0.33665490  0.45458846    -0.13500
C3186       C  0.53028086  0.34372817  0.47242938     0.00100
C3187       C  0.00097706  0.33251709  0.46018053    -0.12100
C3188       C  0.99046866  0.31629951  0.43031513     0.02600
C3189       C  0.50816608  0.30848085  0.41343936    -0.11500
H3190       H  0.57171232  0.34656367  0.46253972     0.08200
H3191       H  0.98769331  0.33963833  0.47187363     0.05700
H3192       H  0.50108392  0.29816646  0.38922539     0.05600
Zr3193     Zr  0.70153230  0.39557035  0.33692019     2.17500
O3194       O  0.74350327  0.44006986  0.30935846    -0.51800
O3195       O  0.73941276  0.42753600  0.38137711    -0.75000
O3196       O  0.68668434  0.42892870  0.31142600    -0.81800
O3197       O  0.73171689  0.34378556  0.32942303    -0.83600
O3198       O  0.63626763  0.40855985  0.31932415    -0.79200
O3199       O  0.73799694  0.38733699  0.31085527    -0.90800
O3200       O  0.72138926  0.40367770  0.42888510    -0.76800
O3201       O  0.66948746  0.39319379  0.37846308    -0.86300
O3202       O  0.70159038  0.36432335  0.37779560    -0.86000
O3203       O  0.65137435  0.36848099  0.31211451    -0.72700
O3204       O  0.68278464  0.34464731  0.31398953    -0.84900
Zr3205     Zr  0.59845765  0.28747093  0.37281365     2.26400
Zr3206     Zr  0.61915463  0.36644353  0.35378943     2.06300
Zr3207     Zr  0.68169603  0.31371031  0.35612283     2.10000
Zr3208     Zr  0.66973809  0.36207489  0.41913802     1.78800
O3209       O  0.68394634  0.27821703  0.31930803    -0.93700
O3210       O  0.66703612  0.40069282  0.44965334    -0.41500
O3211       O  0.64871815  0.31110833  0.39708842    -0.78100
O3212       O  0.62018365  0.33815161  0.39696843    -0.96800
O3213       O  0.59827996  0.31596845  0.32967300    -0.90100
O3214       O  0.63185622  0.28899994  0.33296784    -0.92900
C3215       C  0.74261399  0.42421196  0.41155541     1.00800
C3216       C  0.74646447  0.36887639  0.31334937     1.13700
C3217       C  0.66199247  0.42820311  0.30687733     1.04500
O3218       O  0.62441887  0.40969068  0.38397856    -0.95100
O3219       O  0.57526413  0.34494788  0.38757229    -0.90800
O3220       O  0.56172236  0.29671111  0.39920569    -0.84000
C3221       C  0.55876334  0.31946406  0.40213738     1.11200
O3222       O  0.65340516  0.34651703  0.24084246    -0.97100
Zr3223     Zr  0.63265525  0.31863360  0.29050115     1.88900
O3224       O  0.56890763  0.24749557  0.32926289    -0.73700
O3225       O  0.57472383  0.35367752  0.32188120    -0.53000
O3226       O  0.59405374  0.31870164  0.25920178    -0.97700
O3227       O  0.65526822  0.29840734  0.25674189    -0.54900
O3228       O  0.59341389  0.26524900  0.28187584    -0.74200
C3229       C  0.57307583  0.24389717  0.29931841     0.98100
O3230       O  0.55578526  0.24220799  0.39840431    -0.63100
O3231       O  0.71697328  0.31606851  0.39543897    -0.57900
O3232       O  0.60894768  0.25546469  0.40226821    -0.94500
O3233       O  0.65267800  0.26327570  0.38294437    -0.93000
O3234       O  0.69088204  0.34340982  0.45573512    -0.93300
O3235       O  0.64141056  0.34179603  0.46863506    -0.92100
C3236       C  0.62790420  0.24803131  0.39946497     1.16900
H3237       H  0.72203353  0.37203822  0.38509974     0.32900
H3238       H  0.61054083  0.33865203  0.41627547     0.43700
H3239       H  0.62580257  0.26851596  0.32605601     0.37300
H3240       H  0.65080778  0.37754519  0.29263028     0.33700
H3241       H  0.67889788  0.40476710  0.46983891     0.25500
H3242       H  0.57366822  0.37170327  0.32543943     0.31500
H3243       H  0.58570939  0.30108322  0.24331710     0.37400
H3244       H  0.70882551  0.34664156  0.44458067     0.31800
H3245       H  0.72026311  0.30034893  0.38736492     0.30700
H3246       H  0.69646808  0.27295981  0.33098514     0.32400
H3247       H  0.64017142  0.28629023  0.23895284     0.31400
H3248       H  0.62559420  0.31951718  0.46341015     0.35400
H3249       H  0.55537015  0.24913863  0.42072078     0.28100
H3250       H  0.74598957  0.45856283  0.31981798     0.32300
H3251       H  0.64067723  0.33147524  0.22300352     0.35200
H3252       H  0.73683882  0.33621497  0.39243412     0.27800
H3253       H  0.53731754  0.23823454  0.38747762     0.40700
H3254       H  0.62374306  0.40469321  0.40688111     0.30700
H3255       H  0.67979070  0.42006400  0.43781017     0.38300
H3256       H  0.65441411  0.28252239  0.26973004     0.30200
H3257       H  0.58091222  0.35490717  0.29920656     0.30200
H3258       H  0.73564479  0.43862765  0.28728002     0.30500
Zr3259     Zr  0.91125310  0.37597472  0.30296297     2.17500
O3260       O  0.92778293  0.41432504  0.26188386    -0.51800
O3261       O  0.86535210  0.37556784  0.28937326    -0.75000
O3262       O  0.92713298  0.36096057  0.25250511    -0.81800
O3263       O  0.93190258  0.43008279  0.37937945    -0.83600
O3264       O  0.89080771  0.31084401  0.25336000    -0.79200
O3265       O  0.94360516  0.43006809  0.32657399    -0.90800
O3266       O  0.82408856  0.33937542  0.31744247    -0.76800
O3267       O  0.87147320  0.32134327  0.29976448    -0.86300
O3268       O  0.87924064  0.36495824  0.34847602    -0.86000
O3269       O  0.93682165  0.34985606  0.30725996    -0.72700
O3270       O  0.94183874  0.38979731  0.35170784    -0.84900
Zr3271     Zr  0.89539106  0.29752258  0.39468243     2.26400
Zr3272     Zr  0.89624837  0.29514948  0.30458392     2.06300
Zr3273     Zr  0.90913753  0.37738919  0.39668334     2.10000
Zr3274     Zr  0.83945543  0.31077779  0.34448518     1.78800
O3275       O  0.95033330  0.41005752  0.43607891    -0.93700
O3276       O  0.80428141  0.27445558  0.30195669    -0.41500
O3277       O  0.87006881  0.32310423  0.39189987    -0.78100
O3278       O  0.86218963  0.28300330  0.34799396    -0.96800
O3279       O  0.92861194  0.30932665  0.35109218    -0.90100
O3280       O  0.93439460  0.35202517  0.40046210    -0.92900
C3281       C  0.83732298  0.36208883  0.29865577     1.00800
C3282       C  0.94544018  0.44413634  0.35362949     1.13700
C3283       C  0.91534111  0.33292463  0.24146414     1.04500
O3284       O  0.86523873  0.25249041  0.26551405    -0.95100
O3285       O  0.87390485  0.24293310  0.32085190    -0.90800
O3286       O  0.87080383  0.24397124  0.37532015    -0.84000
C3287       C  0.86588945  0.22985367  0.34790452     1.11200
O3288       O  0.50554060  0.40803373  0.32467848    -0.97100
Zr3289     Zr  0.96664918  0.36413391  0.35548461     1.88900
O3290       O  0.94076005  0.30334457  0.41770038    -0.73700
O3291       O  0.93756968  0.29182249  0.28580361    -0.53000
O3292       O  0.99722591  0.35185080  0.32418487    -0.97700
O3293       O  0.00392438  0.40714761  0.39186284    -0.54900
O3294       O  0.98219850  0.34023292  0.39040669    -0.74200
C3295       C  0.96940183  0.31953768  0.41147171     0.98100
O3296       O  0.87769335  0.26121289  0.43829586    -0.63100
O3297       O  0.87891916  0.39498710  0.41838100    -0.57900
O3298       O  0.87400623  0.30272035  0.44301807    -0.94500
O3299       O  0.88345590  0.35055894  0.44578957    -0.93000
O3300       O  0.81130761  0.31981092  0.38384122    -0.93300
O3301       O  0.79556831  0.26352693  0.36627087    -0.92100
C3302       C  0.87222411  0.32353106  0.45696049     1.16900
H3303       H  0.87164202  0.37770365  0.34957416     0.32900
H3304       H  0.84470527  0.26162105  0.34713011     0.43700
H3305       H  0.94530586  0.35711837  0.42084508     0.37300
H3306       H  0.95217644  0.35511528  0.29147006     0.33700
H3307       H  0.78589824  0.27464020  0.30382721     0.25500
H3308       H  0.92836295  0.27619116  0.26769526     0.31500
H3309       H  0.01590744  0.35987984  0.33756990     0.37400
H3310       H  0.79296106  0.31523719  0.37195279     0.31800
H3311       H  0.89289875  0.41213039  0.43401846     0.30700
H3312       H  0.93980474  0.40774381  0.45651644     0.32400
H3313       H  0.52283776  0.40707209  0.38951320     0.31400
H3314       H  0.80406484  0.25927111  0.38487493     0.35400
H3315       H  0.85578072  0.24472477  0.43346370     0.28100
H3316       H  0.91504937  0.40247148  0.24246790     0.32300
H3317       H  0.52545862  0.41215327  0.33114961     0.35200
H3318       H  0.87614888  0.40523756  0.40054267     0.27800
H3319       H  0.88818531  0.25076409  0.43569973     0.40700
H3320       H  0.84455548  0.24807153  0.26678909     0.30700
H3321       H  0.81353035  0.28476408  0.28152942     0.38300
H3322       H  0.99562230  0.40111369  0.41371600     0.30200
H3323       H  0.95247572  0.31169853  0.27567206     0.30200
H3324       H  0.94874818  0.42097110  0.25645054     0.30500
C3325       C  0.81004325  0.40275167  0.25122050     0.02600
C3326       C  0.82777707  0.39268642  0.26198120    -0.13500
C3327       C  0.81899231  0.37385549  0.28853415     0.00100
C3328       C  0.79223773  0.36588605  0.30525476    -0.12100
C3329       C  0.77482995  0.37703135  0.29588444     0.02600
C3330       C  0.78426219  0.39563521  0.26880012    -0.11500
H3331       H  0.84735353  0.39773776  0.24835003     0.08200
H3332       H  0.78517699  0.35137120  0.32589879     0.05700
H3333       H  0.77058222  0.40337363  0.26036880     0.05600
C3334       C  0.80915823  0.44589372  0.46725115     0.02600
C3335       C  0.83014995  0.47710995  0.45998520    -0.13500
C3336       C  0.82251840  0.49094766  0.43682835     0.00100
C3337       C  0.79394140  0.47365793  0.42092727    -0.12100
C3338       C  0.77292503  0.44279229  0.42770708     0.02600
C3339       C  0.78061881  0.42895416  0.45062887    -0.11500
H3340       H  0.85227955  0.99077905  0.47225247     0.08200
H3341       H  0.78823312  0.48394715  0.40270624     0.05700
H3342       H  0.76398116  0.40476743  0.45580274     0.05600
C3343       C  0.66149646  0.45050624  0.28614677     0.02600
C3344       C  0.63909305  0.44001141  0.26076018    -0.13500
C3345       C  0.63347499  0.46051251  0.24620904     0.00100
C3346       C  0.65097261  0.49154192  0.25748733    -0.12100
C3347       C  0.67279945  0.00218206  0.28261450     0.02600
C3348       C  0.67824402  0.48158310  0.29651676    -0.11500
H3349       H  0.62618863  0.41594963  0.25222998     0.08200
H3350       H  0.64762773  0.00803712  0.24640372     0.05700
H3351       H  0.69391403  0.48947956  0.31706838     0.05600
C3352       C  0.84196566  0.14797637  0.33570958     0.02600
C3353       C  0.81034454  0.13145836  0.33974087    -0.13500
C3354       C  0.79743843  0.14725693  0.34816468     0.00100
C3355       C  0.81599314  0.17960140  0.35248799    -0.12100
C3356       C  0.84738765  0.19618155  0.34690876     0.02600
C3357       C  0.86033696  0.18049865  0.33811366    -0.11500
H3358       H  0.79584664  0.10631814  0.33718328     0.08200
H3359       H  0.80581241  0.19191977  0.35853945     0.05700
H3360       H  0.88483023  0.19362885  0.33454528     0.05600
C3361       C  0.50640115  0.48375104  0.61950711     0.02600
C3362       C  0.52161866  0.01558352  0.61508912    -0.13500
C3363       C  0.50599754  0.02802868  0.60506937     0.00100
C3364       C  0.97419013  0.00851815  0.59974751    -0.12100
C3365       C  0.95746298  0.47632505  0.60546850     0.02600
C3366       C  0.97378174  0.46385887  0.61545209    -0.11500
H3367       H  0.54635248  0.03090268  0.61831983     0.08200
H3368       H  0.96206111  0.01853835  0.59316875     0.05700
H3369       H  0.96153348  0.43919654  0.61896984     0.05600
C3370       C  0.62980496  0.35419902  0.58755142     0.02600
C3371       C  0.66182531  0.37505776  0.59173453    -0.13500
C3372       C  0.67878961  0.36540190  0.60582677     0.00100
C3373       C  0.66378656  0.33463462  0.61499100    -0.12100
C3374       C  0.63229926  0.31340060  0.60887603     0.02600
C3375       C  0.61533088  0.32335680  0.59586620    -0.11500
H3376       H  0.67352673  0.39890229  0.58471078     0.08200
H3377       H  0.67704258  0.32655095  0.62391557     0.05700
H3378       H  0.59083802  0.30685177  0.59172529     0.05600
C3379       C  0.85430427  0.31459934  0.98674675     0.02600
C3380       C  0.85004751  0.33566441  0.50228826    -0.13500
C3381       C  0.83343939  0.32770896  0.53054127     0.00100
C3382       C  0.82060297  0.29818524  0.54309494    -0.12100
C3383       C  0.82529485  0.27717327  0.52831594     0.02600
C3384       C  0.84233282  0.28558478  0.50008989    -0.11500
H3385       H  0.86001938  0.35837542  0.99282007     0.08200
H3386       H  0.80916852  0.29242540  0.56599165     0.05700
H3387       H  0.84635534  0.26940104  0.98918922     0.05600
Zr3388     Zr  0.60459795  0.42106535  0.55115737     2.17500
O3389       O  0.63823175  0.42688240  0.50789295    -0.51800
O3390       O  0.57142553  0.38445725  0.50680942    -0.75000
O3391       O  0.62416834  0.39054374  0.56274354    -0.81800
O3392       O  0.60746597  0.48722749  0.52895956    -0.83600
O3393       O  0.58409011  0.35160616  0.58894862    -0.79200
O3394       O  0.64081728  0.47504501  0.53287332    -0.90800
O3395       O  0.52250541  0.36398699  0.52088593    -0.76800
O3396       O  0.55756674  0.37812190  0.57232162    -0.86300
O3397       O  0.56816074  0.43380609  0.54705396    -0.86000
O3398       O  0.61507395  0.41661090  0.60718618    -0.72700
O3399       O  0.62488659  0.46805160  0.58338681    -0.84900
Zr3400     Zr  0.55546342  0.43491352  0.65908336     2.26400
Zr3401     Zr  0.56702298  0.37401453  0.62787375     2.06300
Zr3402     Zr  0.58747366  0.47913881  0.58240136     2.10000
Zr3403     Zr  0.52278394  0.39201885  0.56944310     1.78800
O3404       O  0.63024582  0.03076425  0.60193172    -0.93700
O3405       O  0.98178501  0.33760134  0.57596850    -0.41500
O3406       O  0.54678917  0.43583814  0.60413793    -0.78100
O3407       O  0.53141571  0.38778764  0.62461369    -0.96800
O3408       O  0.59018109  0.42084898  0.65933324    -0.88500
O3409       O  0.60102242  0.47842446  0.63743109    -0.92900
C3410       C  0.54228662  0.36530009  0.50195684     1.00800
C3411       C  0.63428461  0.49416339  0.52524525     1.13700
C3412       C  0.61128486  0.36537658  0.57812184     1.04500
O3413       O  0.53708360  0.31768659  0.63003643    -0.95100
O3414       O  0.52528032  0.35049474  0.66763710    -0.90800
O3415       O  0.51845653  0.38731837  0.68556155    -0.84000
C3416       C  0.51081702  0.35932572  0.68421789     1.11200
O3417       O  0.68407768  0.49479521  0.60911615    -0.97100
Zr3418     Zr  0.63606436  0.46381456  0.63750723     1.88900
O3419       O  0.59363648  0.45257692  0.70726843    -0.73700
O3420       O  0.59967051  0.37295479  0.66796998    -0.53000
O3421       O  0.67667454  0.45716692  0.64936500    -0.97700
O3422       O  0.66221248  0.01545684  0.66359209    -0.54900
O3423       O  0.63205277  0.44898570  0.69171217    -0.74200
C3424       C  0.61775020  0.45258219  0.71365387     0.98100
O3425       O  0.03785754  0.44931777  0.70590144    -0.63100
O3426       O  0.58275063  0.51680342  0.55551593    -0.57900
O3427       O  0.52703439  0.45822630  0.64560491    -0.94500
O3428       O  0.54427697  0.48013994  0.59709656    -0.93000
O3429       O  0.50453176  0.41084541  0.52925856    -0.93300
O3430       O  0.97309521  0.38254867  0.57853543    -0.92100
C3431       C  0.52648090  0.47252810  0.62107053     1.16900
H3432       H  0.56393860  0.43574702  0.52498503     0.32900
H3433       H  0.51050147  0.37196811  0.62959717     0.43700
H3434       H  0.60777476  0.49718212  0.64987673     0.37300
H3435       H  0.63092351  0.41357384  0.61135460     0.33700
H3436       H  0.97070455  0.33022771  0.55487676     0.25500
H3437       H  0.58558446  0.35390485  0.67985396     0.31500
H3438       H  0.68896343  0.47244076  0.66721306     0.37400
H3439       H  0.99503014  0.39563569  0.51245509     0.31800
H3440       H  0.60348123  0.53274085  0.54776247     0.30700
H3441       H  0.64885865  0.03221743  0.59546626     0.32400
H3442       H  0.68268335  0.02086730  0.66991006     0.31400
H3443       H  0.97520489  0.39212310  0.60016259     0.35400
H3444       H  0.04716828  0.47180641  0.70461134     0.28100
H3445       H  0.63027871  0.40548169  0.50018886     0.32300
H3446       H  0.68791275  0.51546099  0.60763450     0.35200
H3447       H  0.57035488  0.50582199  0.53566111     0.27800
H3448       H  0.01554349  0.43887415  0.70260729     0.40700
H3449       H  0.51912703  0.31003442  0.61557999     0.30700
H3450       H  0.49304675  0.32706303  0.57828705     0.38300
H3451       H  0.65179543  0.01231623  0.68427866     0.30200
H3452       H  0.61232552  0.36819641  0.65538409     0.30200
H3453       H  0.65806928  0.43463046  0.51874665     0.30500
C3454       C  0.66898694  0.07263966  0.98949981     0.02600
C3455       C  0.69602831  0.09078694  0.00806725    -0.13500
C3456       C  0.70416675  0.07800559  0.53180650     0.00100
C3457       C  0.68554005  0.04547624  0.53496432    -0.12100
C3458       C  0.65797807  0.02657502  0.51654223     0.02600
C3459       C  0.64999809  0.04052712  0.99386920    -0.11500
H3460       H  0.71066260  0.11551994  0.00435465     0.08200
H3461       H  0.69128432  0.03522275  0.55311463     0.05700
H3462       H  0.62879055  0.02623957  0.97989892     0.05600
C3463       C  0.93251557  0.32432535  0.71987467     0.02600
C3464       C  0.91707446  0.29402118  0.70562074    -0.13500
C3465       C  0.93246572  0.28410499  0.68719087     0.00100
C3466       C  0.96418323  0.30468737  0.68389120    -0.12100
C3467       C  0.98032191  0.33535406  0.69703772     0.02600
C3468       C  0.96431674  0.34468624  0.71553293    -0.11500
H3469       H  0.89234763  0.27849427  0.70698376     0.08200
H3470       H  0.97538403  0.29815710  0.66728511     0.05700
H3471       H  0.97645823  0.36817979  0.72567187     0.05600
Zr3472     Zr  0.87705771  0.18160155  0.62828259     2.17500
O3473       O  0.92025307  0.19057612  0.65975055    -0.51800
O3474       O  0.90861299  0.17614208  0.58872531    -0.75000
O3475       O  0.86135465  0.13362309  0.65529437    -0.81800
O3476       O  0.90248878  0.26784223  0.64129944    -0.83600
O3477       O  0.81507459  0.09520341  0.63278248    -0.79200
O3478       O  0.90895000  0.23225180  0.66157339    -0.90800
O3479       O  0.88584472  0.16275359  0.53903789    -0.76800
O3480       O  0.84534011  0.14651379  0.58446251    -0.86300
O3481       O  0.88319720  0.21221088  0.58372020    -0.86000
O3482       O  0.82462963  0.15078275  0.64655938    -0.72700
O3483       O  0.85881371  0.21169969  0.64480592    -0.84900
Zr3484     Zr  0.78079942  0.17769566  0.57853446     2.26400
Zr3485     Zr  0.79333352  0.11648027  0.60155120     2.06300
Zr3486     Zr  0.86366186  0.24140148  0.60059185     2.10000
Zr3487     Zr  0.85074393  0.17725913  0.54076693     1.78800
O3488       O  0.86295352  0.28323999  0.62611451    -0.93700
O3489       O  0.82964773  0.13324433  0.50239861    -0.41500
O3490       O  0.83162950  0.20670578  0.55764981    -0.78100
O3491       O  0.79887068  0.14751926  0.55747624    -0.96800
O3492       O  0.77699896  0.14728312  0.62150737    -0.90100
O3493       O  0.81266282  0.21343096  0.62110306    -0.92900
C3494       C  0.90627412  0.16698428  0.55889404     1.00800
C3495       C  0.91421547  0.25970501  0.66164109     1.13700
C3496       C  0.83831507  0.10493112  0.65162751     1.04500
O3497       O  0.79011696  0.07580017  0.56815723    -0.95100
O3498       O  0.74464732  0.08978603  0.56960741    -0.90800
O3499       O  0.74198913  0.12855289  0.55193054    -0.84000
C3500       C  0.73183123  0.09978228  0.55276793     1.11200
O3501       O  0.84360712  0.20409811  0.71102778    -0.97100
Zr3502     Zr  0.80854128  0.18249293  0.66441298     1.88900
O3503       O  0.74055346  0.16433236  0.61852986    -0.73700
O3504       O  0.75272476  0.08042956  0.63707221    -0.53000
O3505       O  0.78839559  0.14493718  0.70690006    -0.97700
O3506       O  0.80510144  0.22272709  0.68980282    -0.54900
O3507       O  0.75486398  0.15753028  0.66700706    -0.74200
C3508       C  0.73487143  0.15488496  0.64774655     0.98100
O3509       O  0.74077188  0.17654573  0.54849164    -0.63100
O3510       O  0.90981093  0.27781298  0.57131712    -0.57900
O3511       O  0.79761489  0.22693193  0.55211997    -0.94500
O3512       O  0.84871953  0.26234955  0.56147661    -0.93000
O3513       O  0.89440234  0.22192355  0.51532907    -0.93300
O3514       O  0.83829055  0.18610271  0.48771117    -0.92100
C3515       C  0.82328486  0.25357537  0.54826993     1.16900
H3516       H  0.90441315  0.22525509  0.57772785     0.32900
H3517       H  0.78788915  0.13497783  0.53838403     0.43700
H3518       H  0.80666306  0.22708170  0.62684313     0.37300
H3519       H  0.82174608  0.13947577  0.66557822     0.33700
H3520       H  0.84668960  0.13883429  0.48789887     0.25500
H3521       H  0.74927940  0.06016492  0.63188338     0.31500
H3522       H  0.77709671  0.15037422  0.72104375     0.37400
H3523       H  0.90193052  0.21297524  0.50016890     0.31800
H3524       H  0.91287748  0.29809919  0.57482539     0.30700
H3525       H  0.87868717  0.30213807  0.61493037     0.32400
H3526       H  0.79940641  0.21642439  0.71229918     0.31400
H3527       H  0.82115410  0.18808661  0.49134902     0.35400
H3528       H  0.74006060  0.19360769  0.55792933     0.28100
H3529       H  0.92313789  0.17455121  0.65172888     0.32300
H3530       H  0.83068621  0.19880784  0.73016141     0.35200
H3531       H  0.92680831  0.27994537  0.58372808     0.27800
H3532       H  0.74827085  0.18266167  0.52635170     0.40700
H3533       H  0.81151548  0.08219897  0.56665728     0.30700
H3534       H  0.82687568  0.11627481  0.51514152     0.38300
H3535       H  0.78654072  0.21962511  0.68008361     0.30200
H3536       H  0.76240887  0.08650842  0.65888410     0.30200
H3537       H  0.91253439  0.18446922  0.68182723     0.30500
Zr3538     Zr  0.85492880  0.42786507  0.55776512     2.17500
O3539       O  0.88912560  0.44133494  0.51263346    -0.51800
O3540       O  0.84635407  0.37882752  0.53942964    -0.75000
O3541       O  0.90900762  0.45356163  0.57741870    -0.81800
O3542       O  0.79051129  0.40768498  0.50599060    -0.83600
O3543       O  0.91015017  0.45124470  0.63207493    -0.79200
O3544       O  0.84058514  0.44509869  0.50973001    -0.90800
O3545       O  0.81178417  0.33998069  0.57102181    -0.76800
O3546       O  0.84594655  0.40049584  0.60621959    -0.86300
O3547       O  0.80141369  0.38616086  0.55881055    -0.86000
O3548       O  0.87014259  0.46523354  0.60193601    -0.72700
O3549       O  0.82740677  0.45118876  0.55724030    -0.84900
Zr3550     Zr  0.78123456  0.42118435  0.65088647     2.26400
Zr3551     Zr  0.86033564  0.43710861  0.65038371     2.06300
Zr3552     Zr  0.77416659  0.40953819  0.55923930     2.10000
Zr3553     Zr  0.79248260  0.35998224  0.60730743     1.78800
O3554       O  0.76569012  0.44347896  0.53020244    -0.93700
O3555       O  0.80980773  0.33553137  0.64087824    -0.41500
O3556       O  0.76485415  0.38278899  0.60796752    -0.78100
O3557       O  0.80689103  0.39552578  0.65136500    -0.96800
O3558       O  0.83455064  0.46206246  0.64968243    -0.90100
O3559       O  0.78817734  0.44686689  0.60196228    -0.92900
C3560       C  0.83047956  0.35044484  0.54799883     1.00800
C3561       C  0.81425760  0.43174371  0.49494656     1.13700
C3562       C  0.92322094  0.45815919  0.60466122     1.04500
O3563       O  0.87765082  0.40999603  0.67890529    -0.95100
O3564       O  0.84089758  0.42597648  0.70548749    -0.90800
O3565       O  0.79147133  0.41085823  0.70397330    -0.84000
C3566       C  0.81481034  0.41500211  0.71864747     1.11200
O3567       O  0.88704246  0.02874478  0.57308987    -0.97100
Zr3568     Zr  0.84178523  0.48758394  0.60065629     1.88900
O3569       O  0.79732640  0.47254546  0.67141918    -0.73700
O3570       O  0.89611026  0.48608932  0.67984190    -0.53000
O3571       O  0.87728353  0.02793816  0.64053024    -0.97700
O3572       O  0.83222435  0.01443568  0.56093918    -0.54900
O3573       O  0.81038578  0.50000091  0.62698702    -0.74200
C3574       C  0.80608016  0.49740221  0.65704749     0.98100
O3575       O  0.74493498  0.41125345  0.69286815    -0.63100
O3576       O  0.73144965  0.36349183  0.53071394    -0.57900
O3577       O  0.72734546  0.39107170  0.63233362    -0.94500
O3578       O  0.72448671  0.39293754  0.57792331    -0.93000
O3579       O  0.74692634  0.31941010  0.57673622    -0.93300
O3580       O  0.75350743  0.31988319  0.64137551    -0.92100
C3581       C  0.71238052  0.38510132  0.60559854     1.16900
H3582       H  0.79486275  0.37194206  0.54036131     0.32900
H3583       H  0.80195769  0.38216489  0.66910687     0.43700
H3584       H  0.77458826  0.45333465  0.60032847     0.37300
H3585       H  0.89140023  0.48255486  0.60122847     0.33700
H3586       H  0.80069998  0.31468273  0.63059701     0.25500
H3587       H  0.90889919  0.48207134  0.69294889     0.31500
H3588       H  0.87346777  0.04418853  0.63949253     0.37400
H3589       H  0.74902849  0.30196701  0.57441727     0.31800
H3590       H  0.72828663  0.37132813  0.51087239     0.30700
H3591       H  0.74764873  0.42926818  0.51592728     0.32400
H3592       H  0.83678817  0.03346128  0.57243238     0.31400
H3593       H  0.74266290  0.32861641  0.65026626     0.35400
H3594       H  0.73386381  0.42001482  0.68544142     0.28100
H3595       H  0.90012814  0.43171504  0.51680798     0.32300
H3596       H  0.89150550  0.04863735  0.58199417     0.35200
H3597       H  0.73965158  0.35168469  0.52313949     0.27800
H3598       H  0.72943180  0.38848002  0.69256190     0.40700
H3599       H  0.85880963  0.38901878  0.68204188     0.30700
H3600       H  0.83200246  0.34689890  0.63687525     0.38300
H3601       H  0.80848516  0.50039172  0.55835353     0.30200
H3602       H  0.91005703  0.50032195  0.66329334     0.30200
H3603       H  0.90491166  0.46396862  0.51546774     0.30500
C3604       C  0.83690124  0.08082487  0.67069183     0.02600
C3605       C  0.81836866  0.05010883  0.65879252    -0.13500
C3606       C  0.81606029  0.02613414  0.67513701     0.00100
C3607       C  0.83070753  0.03234295  0.70516775    -0.12100
C3608       C  0.84929488  0.06285693  0.71800154     0.02600
C3609       C  0.85248460  0.08723692  0.70042373    -0.11500
H3610       H  0.80708808  0.04493569  0.63536877     0.08200
H3611       H  0.82939558  0.01376605  0.71739189     0.05700
H3612       H  0.86670632  0.11100401  0.70988360     0.05600
C3613       C  0.66754335  0.11106023  0.70428305     0.02600
C3614       C  0.69642343  0.12426382  0.69029075    -0.13500
C3615       C  0.70353708  0.13912272  0.66062668     0.00100
C3616       C  0.68104195  0.13973122  0.64454425    -0.12100
C3617       C  0.65232655  0.12708386  0.65838805     0.02600
C3618       C  0.64547243  0.11225016  0.68778432    -0.11500
H3619       H  0.71387180  0.12390606  0.70312102     0.08200
H3620       H  0.68662500  0.15182466  0.62222238     0.05700
H3621       H  0.62354978  0.10320979  0.69867192     0.05600
Zr3622     Zr  0.56684360  0.13158861  0.64950732     2.17500
O3623       O  0.55027680  0.09615491  0.69371777    -0.51800
O3624       O  0.61059108  0.13096627  0.66223801    -0.75000
O3625       O  0.53505337  0.07758095  0.63008399    -0.81800
O3626       O  0.59432621  0.19686474  0.70718656    -0.83600
O3627       O  0.52628430  0.07401930  0.57585425    -0.79200
O3628       O  0.55435059  0.14702169  0.69989028    -0.90800
O3629       O  0.63734982  0.14469802  0.61656836    -0.76800
O3630       O  0.58883098  0.13508020  0.59839842    -0.86300
O3631       O  0.61403009  0.18243916  0.64973091    -0.86000
O3632       O  0.52953343  0.12236707  0.60943094    -0.72700
O3633       O  0.55350563  0.16746863  0.65583354    -0.84900
Zr3634     Zr  0.58333188  0.21214995  0.56436956     2.26400
Zr3635     Zr  0.55275634  0.12742672  0.55799810     2.06300
Zr3636     Zr  0.60026763  0.21815238  0.65459263     2.10000
Zr3637     Zr  0.63513447  0.18599461  0.59853690     1.78800
O3638       O  0.57806199  0.23866992  0.68837345    -0.93700
O3639       O  0.65591579  0.17328490  0.55365466    -0.41500
O3640       O  0.62202534  0.22233935  0.60310919    -0.78100
O3641       O  0.59989201  0.17847961  0.55839383    -0.96800
O3642       O  0.53703156  0.16127495  0.56532963    -0.90100
O3643       O  0.56270950  0.20964290  0.61613969    -0.92900
C3644       C  0.63176863  0.13399648  0.64470471     1.00800
C3645       C  0.56927995  0.17274604  0.71669987     1.13700
C3646       C  0.52334219  0.06201604  0.60333935     1.04500
O3647       O  0.56955425  0.10005355  0.52693283    -0.95100
O3648       O  0.56795265  0.14953760  0.50383853    -0.90800
O3649       O  0.58667951  0.20076892  0.50844647    -0.84000
C3650       C  0.58054290  0.17671428  0.49206325     1.11200
O3651       O  0.97672343  0.11861152  0.65087072    -0.97100
Zr3652     Zr  0.51655673  0.15857511  0.61728883     1.88900
O3653       O  0.53476524  0.20049582  0.54468212    -0.73700
O3654       O  0.50435838  0.10113709  0.52789085    -0.53000
O3655       O  0.96929326  0.12443733  0.58591633    -0.97700
O3656       O  0.00022736  0.17768787  0.66101809    -0.54900
O3657       O  0.51233294  0.19567142  0.59121674    -0.74200
C3658       C  0.51163158  0.19436833  0.56077744     0.98100
O3659       O  0.61263432  0.25328600  0.52620537    -0.63100
O3660       O  0.65064995  0.25399818  0.68004186    -0.57900
O3661       O  0.60254779  0.26357619  0.58555585    -0.94500
O3662       O  0.62256051  0.26999080  0.63598870    -0.93000
O3663       O  0.67876506  0.21418952  0.63617492    -0.93300
O3664       O  0.67920643  0.22981965  0.57272317    -0.92100
C3665       C  0.61807733  0.28018522  0.61058452     1.16900
H3666       H  0.62774041  0.18596276  0.66724007     0.32900
H3667       H  0.61162266  0.18225918  0.53932578     0.43700
H3668       H  0.55916312  0.22548093  0.62005089     0.37300
H3669       H  0.51037782  0.10225891  0.61107582     0.33700
H3670       H  0.67226824  0.17232629  0.56342804     0.25500
H3671       H  0.50327566  0.08422340  0.51535950     0.31500
H3672       H  0.95461680  0.12823462  0.59523971     0.37400
H3673       H  0.69114881  0.20613808  0.63104342     0.31800
H3674       H  0.65431523  0.24089315  0.69290015     0.30700
H3675       H  0.59454737  0.25303635  0.70418840     0.32400
H3676       H  0.01033697  0.19996169  0.65703717     0.31400
H3677       H  0.67042486  0.23795368  0.55888048     0.35400
H3678       H  0.60260319  0.26423355  0.52480646     0.28100
H3679       H  0.55718945  0.08268658  0.68842173     0.32300
H3680       H  0.98787907  0.11428111  0.66627146     0.35200
H3681       H  0.66516251  0.26073302  0.66213814     0.27800
H3682       H  0.63293700  0.26849368  0.53662060     0.40700
H3683       H  0.58505032  0.10094921  0.54099452     0.30700
H3684       H  0.63950238  0.15146776  0.54729979     0.38300
H3685       H  0.51037233  0.17741538  0.68027176     0.30200
H3686       H  0.48849621  0.09040135  0.54437543     0.30200
H3687       H  0.02699607  0.08164999  0.69109493     0.30500
C3688       C  0.92922219  0.16218317  0.54574448     0.02600
C3689       C  0.95881628  0.17963372  0.55914164    -0.13500
C3690       C  0.98211478  0.17905334  0.54464644     0.00100
C3691       C  0.97566115  0.15964910  0.51739954    -0.12100
C3692       C  0.94600395  0.14080598  0.00389176     0.02600
C3693       C  0.92302609  0.14305843  0.51775198    -0.11500
H3694       H  0.96406766  0.19449134  0.58042132     0.08200
H3695       H  0.99380510  0.15948102  0.00585339     0.05700
H3696       H  0.90049633  0.13035287  0.00581417     0.05600
C3697       C  0.97801888  0.02946179  0.87426398     0.02600
C3698       C  0.95674626  0.49692246  0.86872812    -0.13500
C3699       C  0.96642466  0.47842741  0.85660439     0.00100
C3700       C  0.49763635  0.99297449  0.85051224    -0.12100
C3701       C  0.51890588  0.02492417  0.85713364     0.02600
C3702       C  0.50899023  0.04280225  0.86871728    -0.11500
H3703       H  0.93263004  0.48632148  0.87259235     0.08200
H3704       H  0.50576466  0.47959413  0.84180554     0.05700
H3705       H  0.52553391  0.06769316  0.87251466     0.05600
Zr3706     Zr  0.62099893  0.08293959  0.89864370     2.17500
O3707       O  0.58076894  0.06232096  0.93846302    -0.51800
O3708       O  0.61916545  0.12731840  0.91446417    -0.75000
O3709       O  0.63588225  0.07287159  0.95033597    -0.81800
O3710       O  0.56320475  0.04601220  0.82565021    -0.83600
O3711       O  0.68583009  0.11055989  0.95014201    -0.79200
O3712       O  0.56775483  0.05009467  0.88048650    -0.90800
O3713       O  0.65122095  0.16798659  0.88350589    -0.76800
O3714       O  0.67284595  0.12772448  0.89891523    -0.86300
O3715       O  0.62626346  0.10955102  0.85072330    -0.86000
O3716       O  0.65111486  0.06166872  0.89739795    -0.72700
O3717       O  0.60828305  0.04740844  0.85321537    -0.84900
Zr3718     Zr  0.69831329  0.10021251  0.80632112     2.26400
Zr3719     Zr  0.70283457  0.10700705  0.89744711     2.06300
Zr3720     Zr  0.61522125  0.07505550  0.80537753     2.10000
Zr3721     Zr  0.67812844  0.15373018  0.85070949     1.78800
O3722       O  0.58340519  0.03045938  0.76843377    -0.93700
O3723       O  0.71804017  0.19839556  0.88336541    -0.41500
O3724       O  0.66726400  0.11952496  0.80578530    -0.78100
O3725       O  0.71015523  0.13595993  0.85068580    -0.96800
O3726       O  0.69180289  0.07201273  0.85320731    -0.90100
O3727       O  0.64583501  0.05559436  0.80395747    -0.92900
C3728       C  0.63091148  0.15500852  0.90495515     1.00800
C3729       C  0.55199363  0.04063591  0.85400075     1.13700
C3730       C  0.66293605  0.08675241  0.96284145     1.04500
O3731       O  0.74470759  0.14216120  0.93522963    -0.95100
O3732       O  0.75393677  0.13322545  0.87685666    -0.90800
O3733       O  0.74808911  0.11480114  0.82511724    -0.84000
C3734       C  0.76435351  0.13034231  0.85030003     1.11200
O3735       O  0.61256644  0.49420037  0.89583040    -0.97100
Zr3736     Zr  0.63948428  0.02840945  0.85120798     1.88900
O3737       O  0.69320966  0.05544034  0.78151383    -0.73700
O3738       O  0.70970351  0.06857114  0.91797358    -0.53000
O3739       O  0.63745819  0.98186967  0.86080494    -0.97700
O3740       O  0.59818884  0.49302272  0.81257018    -0.54900
O3741       O  0.68406489  0.03425302  0.82876971    -0.74200
C3742       C  0.68546019  0.03233388  0.79834740     0.98100
O3743       O  0.74062994  0.14112114  0.77516727    -0.63100
O3744       O  0.59406612  0.10203455  0.78487356    -0.57900
O3745       O  0.68493620  0.10249570  0.75188767    -0.94500
O3746       O  0.63708056  0.09161584  0.75160553    -0.93000
O3747       O  0.65771383  0.17336848  0.81431493    -0.93300
O3748       O  0.71811684  0.19505340  0.81843453    -0.92100
C3749       C  0.66243839  0.10037989  0.73784927     1.16900
H3750       H  0.61219112  0.11547390  0.85042431     0.32900
H3751       H  0.73086326  0.15426997  0.84928142     0.43700
H3752       H  0.64095647  0.04293628  0.78448725     0.37300
H3753       H  0.64863953  0.04892328  0.91493466     0.33700
H3754       H  0.71269688  0.21352640  0.88296179     0.25500
H3755       H  0.72994421  0.07486591  0.91007117     0.31500
H3756       H  0.62855891  0.46853706  0.83976449     0.37400
H3757       H  0.66499462  0.19413303  0.82360047     0.31800
H3758       H  0.58162449  0.08944343  0.76559864     0.30700
H3759       H  0.57284727  0.03656752  0.75442440     0.32400
H3760       H  0.58132977  0.47715426  0.82590724     0.31400
H3761       H  0.71454698  0.18543871  0.79652438     0.35400
H3762       H  0.73311204  0.15274740  0.76596162     0.28100
H3763       H  0.58990053  0.07699977  0.95739135     0.32300
H3764       H  0.59261396  0.49149663  0.89616069     0.35200
H3765       H  0.57884975  0.09893414  0.80081075     0.27800
H3766       H  0.75652474  0.15628036  0.79107791     0.40700
H3767       H  0.74815008  0.16255779  0.93266991     0.30700
H3768       H  0.71417252  0.19126732  0.90573330     0.38300
H3769       H  0.60646225  0.98238576  0.80029258     0.30200
H3770       H  0.71295506  0.07317217  0.94149946     0.30200
H3771       H  0.57757853  0.04294778  0.94568940     0.30500
C3772       C  0.59297525  0.18251987  0.95914026     0.02600
C3773       C  0.60133446  0.20978659  0.94362612    -0.13500
C3774       C  0.61968061  0.21957109  0.91612813     0.00100
C3775       C  0.62923934  0.20143549  0.90409176    -0.12100
C3776       C  0.62034850  0.17357147  0.91858048     0.02600
C3777       C  0.60195745  0.16416205  0.94584488    -0.11500
H3778       H  0.59452314  0.22410225  0.95373640     0.08200
H3779       H  0.64312398  0.20880244  0.88280578     0.05700
H3780       H  0.59622055  0.14354589  0.95782994     0.05600
C3781       C  0.55454810  0.17673387  0.74457722     0.02600
C3782       C  0.57089582  0.20456340  0.76317783    -0.13500
C3783       C  0.55565348  0.21320184  0.78329719     0.00100
C3784       C  0.52402135  0.19389199  0.78510926    -0.12100
C3785       C  0.50751901  0.16532599  0.76786292     0.02600
C3786       C  0.52274323  0.15641085  0.74818325    -0.11500
H3787       H  0.59549295  0.22048002  0.76069382     0.08200
H3788       H  0.51241699  0.20113200  0.80004514     0.05700
H3789       H  0.00957310  0.13438970  0.73455961     0.05600
Zr3790     Zr  0.91177807  0.12521937  0.80689685     2.17500
O3791       O  0.91549281  0.16526491  0.77487342    -0.51800
O3792       O  0.88181585  0.09762473  0.75950438    -0.75000
O3793       O  0.95898279  0.15441443  0.77800556    -0.81800
O3794       O  0.84117463  0.10361543  0.84311858    -0.83600
O3795       O  0.96430135  0.11608121  0.78004461    -0.79200
O3796       O  0.88341787  0.14565916  0.82300451    -0.90800
O3797       O  0.86274897  0.04694814  0.76472810    -0.76800
O3798       O  0.92436079  0.08856730  0.80033123    -0.86300
O3799       O  0.86742214  0.07659092  0.82304457    -0.86000
O3800       O  0.95723661  0.14532512  0.83994424    -0.72700
O3801       O  0.90340628  0.13299886  0.86179766    -0.84900
Zr3802     Zr  0.92102651  0.07106902  0.90886392     2.26400
Zr3803     Zr  0.96795857  0.10680069  0.83556967     2.06300
Zr3804     Zr  0.86104362  0.08347390  0.87886932     2.10000
Zr3805     Zr  0.88059152  0.04112890  0.81698256     1.78800
O3806       O  0.85453905  0.11127058  0.92233776    -0.93700
O3807       O  0.90223198  0.02264177  0.77928811    -0.41500
O3808       O  0.87622891  0.04925656  0.87339884    -0.78100
O3809       O  0.92364459  0.05887647  0.85256508    -0.96800
O3810       O  0.96389314  0.11877067  0.89071625    -0.90100
O3811       O  0.90510218  0.10505452  0.91239947    -0.92900
C3812       C  0.86574161  0.06939918  0.74928339     1.00800
C3813       C  0.85596934  0.13114796  0.83285264     1.13700
C3814       C  0.97488943  0.14376392  0.77322076     1.04500
O3815       O  0.00407977  0.10241661  0.80449883    -0.95100
O3816       O  0.97823863  0.07051591  0.85446385    -0.90800
O3817       O  0.94982854  0.04777586  0.89859201    -0.84000
C3818       C  0.96854178  0.05090098  0.87683130     1.11200
O3819       O  0.97557883  0.20551921  0.87341381    -0.97100
Zr3820     Zr  0.94828746  0.15335905  0.89410360     1.88900
O3821       O  0.93681863  0.10370130  0.96072946    -0.73700
O3822       O  0.51912021  0.15293624  0.85041568    -0.53000
O3823       O  0.00081851  0.18107606  0.91456885    -0.97700
O3824       O  0.92948817  0.18357123  0.91358858    -0.54900
O3825       O  0.94726462  0.15100354  0.95072439    -0.74200
C3826       C  0.94318527  0.13069952  0.96983491     0.98100
O3827       O  0.92614127  0.04637923  0.95483807    -0.63100
O3828       O  0.80530082  0.05213288  0.88112340    -0.57900
O3829       O  0.87305288  0.03014913  0.92862474    -0.94500
O3830       O  0.83697086  0.03623123  0.90981449    -0.93000
O3831       O  0.82539703  0.00262284  0.81923120    -0.93300
O3832       O  0.86406463  0.48800516  0.82357321    -0.92100
C3833       C  0.84546051  0.02149362  0.92542085     1.16900
H3834       H  0.84905895  0.06965926  0.81069274     0.32900
H3835       H  0.92411180  0.04101478  0.84938411     0.43700
H3836       H  0.89781420  0.10583857  0.93335460     0.37300
H3837       H  0.97435897  0.16520476  0.83318752     0.33700
H3838       H  0.90728844  0.03532882  0.76012148     0.25500
H3839       H  0.53106110  0.15893346  0.83046765     0.31500
H3840       H  0.00255673  0.19533307  0.93196397     0.37400
H3841       H  0.81957812  0.00684759  0.84030787     0.31800
H3842       H  0.80006728  0.06701260  0.88625147     0.30700
H3843       H  0.84928645  0.12405515  0.91128009     0.32400
H3844       H  0.94302086  0.19631763  0.93224812     0.31400
H3845       H  0.86646907  0.48668053  0.84697697     0.35400
H3846       H  0.91885352  0.52518217  0.94748476     0.28100
H3847       H  0.91914436  0.16128828  0.75250008     0.32300
H3848       H  0.98482337  0.21996808  0.89250368     0.35200
H3849       H  0.79799632  0.04485964  0.85857472     0.27800
H3850       H  0.94842161  0.05713273  0.95884597     0.40700
H3851       H  0.99117163  0.08499645  0.78869719     0.30700
H3852       H  0.92238867  0.02995576  0.78898740     0.38300
H3853       H  0.90951528  0.16822740  0.92320807     0.30200
H3854       H  0.51683490  0.16998701  0.85523916     0.30200
H3855       H  0.93478997  0.18502615  0.78212977     0.30500
C3856       C  0.53721394  0.31877843  0.92522842     0.02600
C3857       C  0.54850999  0.33696780  0.95456486    -0.13500
C3858       C  0.53044062  0.34404504  0.97242820     0.00100
C3859       C  0.00088527  0.33253896  0.96028752    -0.12100
C3860       C  0.99059302  0.31669045  0.93022670     0.02600
C3861       C  0.50828989  0.30884438  0.91343677    -0.11500
H3862       H  0.57186252  0.34688222  0.96249099     0.08200
H3863       H  0.98751976  0.33951845  0.97206215     0.05700
H3864       H  0.50119312  0.29856492  0.88921233     0.05600
Zr3865     Zr  0.70153948  0.39546258  0.83717710     2.17500
O3866       O  0.74326667  0.43901376  0.80844626    -0.51800
O3867       O  0.73934058  0.42753713  0.88168344    -0.75000
O3868       O  0.68675162  0.42892759  0.81176642    -0.81800
O3869       O  0.73150273  0.34346061  0.82940189    -0.83600
O3870       O  0.63625133  0.40835967  0.81936439    -0.79200
O3871       O  0.73793750  0.38717028  0.81114111    -0.90800
O3872       O  0.72148039  0.40330353  0.92904376    -0.76800
O3873       O  0.66949114  0.39311895  0.87868266    -0.86300
O3874       O  0.70166263  0.36420443  0.87802731    -0.86000
O3875       O  0.65146679  0.36844143  0.81225306    -0.72700
O3876       O  0.68275579  0.34456387  0.81425927    -0.84900
Zr3877     Zr  0.59844396  0.28746740  0.87282608     2.26400
Zr3878     Zr  0.61921022  0.36636177  0.85388097     2.06300
Zr3879     Zr  0.68165957  0.31358531  0.85629101     2.10000
Zr3880     Zr  0.66973827  0.36198032  0.91931711     1.78800
O3881       O  0.68447294  0.27843715  0.81949177    -0.93700
O3882       O  0.66691004  0.40097916  0.94880019    -0.41500
O3883       O  0.64865854  0.31104204  0.89715381    -0.78100
O3884       O  0.62020488  0.33808667  0.89713126    -0.96800
O3885       O  0.59832230  0.31595554  0.82966283    -0.90100
O3886       O  0.63187871  0.28894139  0.83302745    -0.92900
C3887       C  0.74262315  0.42403376  0.91179064     1.00800
C3888       C  0.74627101  0.36859157  0.81342102     1.13700
C3889       C  0.66201031  0.42809323  0.80705788     1.04500
O3890       O  0.62372550  0.40981732  0.88271933    -0.95100
O3891       O  0.57550110  0.34519801  0.88777001    -0.90800
O3892       O  0.56168552  0.29681119  0.89912537    -0.84000
C3893       C  0.55885488  0.31965650  0.90217805     1.11200
O3894       O  0.65311304  0.34634152  0.74074431    -0.97100
Zr3895     Zr  0.63275549  0.31864126  0.79056363     1.88900
O3896       O  0.56906204  0.24755867  0.82915979    -0.73700
O3897       O  0.57457543  0.35250900  0.82168626    -0.53000
O3898       O  0.59380223  0.31823151  0.75940415    -0.97700
O3899       O  0.65580191  0.29900741  0.75660139    -0.54900
O3900       O  0.59372613  0.26531233  0.78185327    -0.74200
C3901       C  0.57330935  0.24398472  0.79922990     0.98100
O3902       O  0.55587221  0.24223130  0.89851495    -0.63100
O3903       O  0.71674841  0.31593984  0.89588915    -0.57900
O3904       O  0.60891153  0.25550905  0.90234116    -0.94500
O3905       O  0.65242868  0.26302643  0.88274557    -0.93000
O3906       O  0.68979705  0.34272714  0.95662984    -0.93300
O3907       O  0.64180099  0.34241322  0.96912773    -0.92100
C3908       C  0.62773318  0.24792320  0.89938220     1.16900
H3909       H  0.72211224  0.37188797  0.88528850     0.32900
H3910       H  0.61053520  0.33851353  0.91645319     0.43700
H3911       H  0.62586097  0.26846703  0.82612547     0.37300
H3912       H  0.65096863  0.37753686  0.79276283     0.33700
H3913       H  0.67796183  0.40471313  0.96950300     0.25500
H3914       H  0.57236754  0.36969374  0.82610095     0.31500
H3915       H  0.58487292  0.30003675  0.74419885     0.37400
H3916       H  0.70679834  0.34419965  0.94515698     0.31800
H3917       H  0.71923123  0.29947020  0.88854796     0.30700
H3918       H  0.69692865  0.27317504  0.83130340     0.32400
H3919       H  0.64077241  0.28688662  0.73876355     0.31400
H3920       H  0.62688058  0.31981231  0.96468715     0.35400
H3921       H  0.55545773  0.24924261  0.92079246     0.28100
H3922       H  0.74583669  0.45780066  0.81815662     0.32300
H3923       H  0.64005012  0.33133104  0.72302192     0.35200
H3924       H  0.73688471  0.33558154  0.89219570     0.27800
H3925       H  0.53737345  0.23817004  0.88756688     0.40700
H3926       H  0.62362064  0.40561334  0.90580286     0.30700
H3927       H  0.68038602  0.42039916  0.93723253     0.38300
H3928       H  0.65512180  0.28315231  0.76947196     0.30200
H3929       H  0.58131079  0.35503307  0.79910607     0.30200
H3930       H  0.73513270  0.43682547  0.78632351     0.30500
Zr3931     Zr  0.91095940  0.37571904  0.80279725     2.17500
O3932       O  0.92743915  0.41410039  0.76171759    -0.51800
O3933       O  0.86494478  0.37511589  0.78925212    -0.75000
O3934       O  0.92701224  0.36091475  0.75229006    -0.81800
O3935       O  0.93189900  0.42989964  0.87945792    -0.83600
O3936       O  0.89084113  0.31075973  0.75318551    -0.79200
O3937       O  0.94310096  0.42982096  0.82646382    -0.90800
O3938       O  0.82385846  0.33914848  0.81768897    -0.76800
O3939       O  0.87125476  0.32104761  0.79971569    -0.86300
O3940       O  0.87897438  0.36465475  0.84838514    -0.86000
O3941       O  0.93655543  0.34958467  0.80699265    -0.72700
O3942       O  0.94158555  0.38961802  0.85152677    -0.84900
Zr3943     Zr  0.89530989  0.29740656  0.89464016     2.26400
Zr3944     Zr  0.89605391  0.29487859  0.80442905     2.06300
Zr3945     Zr  0.90892387  0.37715483  0.89658458     2.10000
Zr3946     Zr  0.83925118  0.31042341  0.84445540     1.78800
O3947       O  0.95020917  0.40981560  0.93588324    -0.93700
O3948       O  0.80418866  0.27453647  0.80164509    -0.41500
O3949       O  0.86990918  0.32288257  0.89186476    -0.78100
O3950       O  0.86210752  0.28276655  0.84792951    -0.96800
O3951       O  0.92845378  0.30918411  0.85091390    -0.90100
O3952       O  0.93429302  0.35192602  0.90021720    -0.92900
C3953       C  0.83697434  0.36170831  0.79869509     1.00800
C3954       C  0.94517837  0.44390705  0.85360368     1.13700
C3955       C  0.91536739  0.33288978  0.74131054     1.04500
O3956       O  0.86458462  0.25245103  0.76529120    -0.95100
O3957       O  0.87389139  0.24274148  0.82094546    -0.90800
O3958       O  0.87089686  0.24384869  0.87542769    -0.84000
C3959       C  0.86595446  0.22969971  0.84802872     1.11200
O3960       O  0.50585757  0.40818846  0.82465560    -0.97100
Zr3961     Zr  0.96646037  0.36400862  0.85513956     1.88900
O3962       O  0.94087978  0.30380136  0.91789965    -0.73700
O3963       O  0.93699918  0.29104117  0.78540991    -0.53000
O3964       O  0.99769633  0.35193614  0.82485735    -0.97700
O3965       O  0.00371295  0.40701342  0.89150587    -0.54900
O3966       O  0.98215718  0.34032696  0.89013409    -0.74200
C3967       C  0.96947382  0.31988336  0.91145693     0.98100
O3968       O  0.87778132  0.26114826  0.93830662    -0.63100
O3969       O  0.87833298  0.39438006  0.91810047    -0.57900
O3970       O  0.87323170  0.30230119  0.94262300    -0.94500
O3971       O  0.88360844  0.35052351  0.94595318    -0.93000
O3972       O  0.81053229  0.31808457  0.88437385    -0.93300
O3973       O  0.79533571  0.26256787  0.86528578    -0.92100
C3974       C  0.87188101  0.32328908  0.95684831     1.16900
H3975       H  0.87136190  0.37738632  0.84949474     0.32900
H3976       H  0.84466659  0.26136569  0.84711816     0.43700
H3977       H  0.94529237  0.35713351  0.92055641     0.37300
H3978       H  0.95190017  0.35479801  0.79120297     0.33700
H3979       H  0.78582164  0.27473952  0.80360955     0.25500
H3980       H  0.92769396  0.27560269  0.76713321     0.31500
H3981       H  0.01696499  0.36166346  0.83772726     0.37400
H3982       H  0.79331335  0.31568394  0.87212983     0.31800
H3983       H  0.89224280  0.41168469  0.93361615     0.30700
H3984       H  0.93972545  0.40925270  0.95577266     0.32400
H3985       H  0.52200709  0.40639393  0.89149526     0.31400
H3986       H  0.80358936  0.25837423  0.88416978     0.35400
H3987       H  0.85594980  0.24444466  0.93337993     0.28100
H3988       H  0.91480366  0.40225532  0.74224758     0.32300
H3989       H  0.52579560  0.41298430  0.83222488     0.35200
H3990       H  0.87535816  0.40439117  0.90016435     0.27800
H3991       H  0.88855483  0.25097511  0.93589007     0.40700
H3992       H  0.84387506  0.24787003  0.76720264     0.30700
H3993       H  0.81350095  0.28504812  0.78132277     0.38300
H3994       H  0.99653090  0.39995985  0.91351053     0.30200
H3995       H  0.95211736  0.31098719  0.77551004     0.30200
H3996       H  0.94846543  0.42089142  0.75636426     0.30500
C3997       C  0.80972073  0.40237806  0.75119369     0.02600
C3998       C  0.82739036  0.39222498  0.76192402    -0.13500
C3999       C  0.81859877  0.37339595  0.78848838     0.00100
C4000       C  0.79185616  0.36543732  0.80518774    -0.12100
C4001       C  0.77452075  0.37665895  0.79585161     0.02600
C4002       C  0.78395008  0.39528032  0.76878140    -0.11500
H4003       H  0.84696260  0.39726638  0.74829535     0.08200
H4004       H  0.78477560  0.35091401  0.82582766     0.05700
H4005       H  0.77030419  0.40307652  0.76039972     0.05600
C4006       C  0.80924280  0.44587925  0.96742326     0.02600
C4007       C  0.83018396  0.47709943  0.96014772    -0.13500
C4008       C  0.82249157  0.49087521  0.93699877     0.00100
C4009       C  0.79389430  0.47354554  0.92113515    -0.12100
C4010       C  0.77292775  0.44267843  0.92794109     0.02600
C4011       C  0.78068719  0.42889177  0.95085308    -0.11500
H4012       H  0.85229198  0.99058909  0.97228971     0.08200
H4013       H  0.78814035  0.48379273  0.90290893     0.05700
H4014       H  0.76410420  0.40469461  0.95603325     0.05600
C4015       C  0.66144152  0.45033032  0.78628368     0.02600
C4016       C  0.63911759  0.43973917  0.76078293    -0.13500
C4017       C  0.63329432  0.46009535  0.74621875     0.00100
C4018       C  0.65052609  0.49108791  0.75759589    -0.12100
C4019       C  0.67249144  0.00181219  0.78288359     0.02600
C4020       C  0.67793770  0.48136966  0.79672090    -0.11500
H4021       H  0.62639054  0.41569749  0.75221622     0.08200
H4022       H  0.64727458  0.00756633  0.74661030     0.05700
H4023       H  0.69356730  0.48934364  0.81732068     0.05600
C4024       C  0.84178757  0.14777459  0.83541988     0.02600
C4025       C  0.81015679  0.13132733  0.83935651    -0.13500
C4026       C  0.79734263  0.14717533  0.84795319     0.00100
C4027       C  0.81601787  0.17949133  0.85260479    -0.12100
C4028       C  0.84741865  0.19601869  0.84705725     0.02600
C4029       C  0.86027100  0.18028543  0.83806926    -0.11500
H4030       H  0.79558503  0.10619781  0.83661914     0.08200
H4031       H  0.80591762  0.19185461  0.85882362     0.05700
H4032       H  0.88476431  0.19335089  0.83452790     0.05600
C4033       C  0.50636736  0.98375364  0.11931687     0.02600
C4034       C  0.52151573  0.51534440  0.11518587    -0.13500
C4035       C  0.50597454  0.52783107  0.10506057     0.00100
C4036       C  0.97440022  0.50874416  0.09986755    -0.12100
C4037       C  0.95769839  0.97666306  0.10577828     0.02600
C4038       C  0.97399870  0.96417573  0.11574983    -0.11500
H4039       H  0.54623985  0.53063878  0.11853359     0.08200
H4040       H  0.96232117  0.51875764  0.09304980     0.05700
H4041       H  0.96172717  0.93951792  0.11930751     0.05600
C4042       C  0.63000287  0.85433697  0.08759764     0.02600
C4043       C  0.66200796  0.87512970  0.09184926    -0.13500
C4044       C  0.67893789  0.86529820  0.10559750     0.00100
C4045       C  0.66392592  0.83441619  0.11439422    -0.12100
C4046       C  0.63238830  0.81327490  0.10846659     0.02600
C4047       C  0.61546238  0.82340206  0.09569682    -0.11500
H4048       H  0.67373587  0.89905781  0.08510524     0.08200
H4049       H  0.67717761  0.82623122  0.12304326     0.05700
H4050       H  0.59095386  0.80697718  0.09160782     0.05600
C4051       C  0.85384021  0.81427926  0.48675064     0.02600
C4052       C  0.84966396  0.83541098  0.00236573    -0.13500
C4053       C  0.83338029  0.82762731  0.03084372     0.00100
C4054       C  0.82051651  0.79809442  0.04340188    -0.12100
C4055       C  0.82476154  0.77684988  0.02833785     0.02600
C4056       C  0.84142052  0.78507635  0.99984845    -0.11500
H4057       H  0.85907645  0.85784263  0.49259112     0.08200
H4058       H  0.80935983  0.79246883  0.06645668     0.05700
H4059       H  0.84620489  0.76923192  0.48928017     0.05600
Zr4060     Zr  0.60473129  0.92113336  0.05090272     2.17500
O4061       O  0.63775402  0.92632097  0.00723771    -0.51800
O4062       O  0.57123175  0.88419247  0.00686569    -0.75000
O4063       O  0.62450662  0.89082499  0.06280409    -0.81800
O4064       O  0.60752959  0.98716649  0.02845699    -0.83600
O4065       O  0.58441895  0.85198043  0.08905575    -0.79200
O4066       O  0.64089551  0.97498758  0.03239829    -0.90800
O4067       O  0.52235508  0.86412646  0.02076267    -0.76800
O4068       O  0.55765672  0.87843527  0.07217278    -0.86300
O4069       O  0.56842065  0.93402446  0.04665472    -0.86000
O4070       O  0.61542525  0.91706973  0.10698885    -0.72700
O4071       O  0.62506075  0.96831600  0.08283978    -0.84900
Zr4072     Zr  0.55561457  0.93520350  0.15874245     2.26400
Zr4073     Zr  0.56737112  0.87458779  0.12771621     2.06300
Zr4074     Zr  0.58765476  0.97941295  0.08194422     2.10000
Zr4075     Zr  0.52295894  0.89248471  0.06908383     1.78800
O4076       O  0.63012966  0.53080313  0.10201547    -0.93700
O4077       O  0.98176256  0.83732235  0.07607369    -0.41500
O4078       O  0.54697990  0.93620742  0.10381555    -0.78100
O4079       O  0.53160249  0.88815245  0.12423436    -0.96800
O4080       O  0.59064788  0.92153274  0.15902116    -0.88500
O4081       O  0.60113988  0.97877073  0.13700609    -0.92900
C4082       C  0.54207601  0.86520459  0.00195884     1.00800
C4083       C  0.63435599  0.99409769  0.02477179     1.13700
C4084       C  0.61159558  0.86567380  0.07822853     1.04500
O4085       O  0.53851578  0.81837938  0.13019513    -0.95100
O4086       O  0.52537954  0.85080814  0.16711928    -0.90800
O4087       O  0.51839169  0.88750848  0.18502642    -0.84000
C4088       C  0.51082221  0.85953635  0.18366689     1.11200
O4089       O  0.68435401  0.99442598  0.10817236    -0.97100
Zr4090     Zr  0.63644227  0.96449334  0.13696953     1.88900
O4091       O  0.59337638  0.95228407  0.20717751    -0.73700
O4092       O  0.59993116  0.87419748  0.16848308    -0.53000
O4093       O  0.67710494  0.95810152  0.14954038    -0.97700
O4094       O  0.66167649  0.51584954  0.16350736    -0.54900
O4095       O  0.63349505  0.95141520  0.19164120    -0.74200
C4096       C  0.61816957  0.95349080  0.21354320     0.98100
O4097       O  0.03819695  0.94970117  0.20570321    -0.63100
O4098       O  0.58326862  0.01737728  0.05527028    -0.57900
O4099       O  0.52697472  0.95820469  0.14521352    -0.94500
O4100       O  0.54448332  0.98048143  0.09688900    -0.93000
O4101       O  0.50617978  0.91274020  0.02889320    -0.93300
O4102       O  0.97253227  0.88151563  0.07810172    -0.92100
C4103       C  0.52653682  0.97265543  0.12078222     1.16900
H4104       H  0.56424067  0.93586280  0.02453283     0.32900
H4105       H  0.51067501  0.87230716  0.12913053     0.43700
H4106       H  0.60782666  0.99751671  0.14944129     0.37300
H4107       H  0.63127639  0.91405323  0.11126370     0.33700
H4108       H  0.97120295  0.82955624  0.05473654     0.25500
H4109       H  0.58554049  0.85654947  0.18196692     0.31500
H4110       H  0.68969303  0.97397671  0.16683610     0.37400
H4111       H  0.00002699  0.89888065  0.01021331     0.31800
H4112       H  0.60411099  0.03337625  0.04782749     0.30700
H4113       H  0.64877665  0.53194814  0.09647841     0.32400
H4114       H  0.68231859  0.52168618  0.16974687     0.31400
H4115       H  0.97508976  0.89308055  0.09850902     0.35400
H4116       H  0.04766979  0.97221324  0.20428829     0.28100
H4117       H  0.62998891  0.90481767  0.00016033     0.32300
H4118       H  0.68860129  0.01524070  0.10637413     0.35200
H4119       H  0.57112184  0.00661352  0.03523065     0.27800
H4120       H  0.01589548  0.93940461  0.20251981     0.40700
H4121       H  0.52073546  0.81029963  0.11532403     0.30700
H4122       H  0.49215529  0.82778422  0.08042297     0.38300
H4123       H  0.65128621  0.51254462  0.18424433     0.30200
H4124       H  0.61115318  0.86723697  0.15657950     0.30200
H4125       H  0.65786766  0.93465925  0.01776634     0.30500
C4126       C  0.66886195  0.57266289  0.48969440     0.02600
C4127       C  0.69590889  0.59085703  0.50823673    -0.13500
C4128       C  0.70441157  0.57765713  0.03118572     0.00100
C4129       C  0.68552515  0.54519202  0.03455578    -0.12100
C4130       C  0.65788048  0.52645752  0.01627243     0.02600
C4131       C  0.64986559  0.54054896  0.49416386    -0.11500
H4132       H  0.71051314  0.61558793  0.50450096     0.08200
H4133       H  0.69110207  0.53489325  0.05283126     0.05700
H4134       H  0.62862687  0.52623497  0.48025077     0.05600
C4135       C  0.93255708  0.82451877  0.21971129     0.02600
C4136       C  0.91697889  0.79428609  0.20514329    -0.13500
C4137       C  0.93230593  0.78425059  0.18673169     0.00100
C4138       C  0.96405689  0.80474147  0.18357242    -0.12100
C4139       C  0.98032206  0.83534814  0.19693842     0.02600
C4140       C  0.96439917  0.84473516  0.21551641    -0.11500
H4141       H  0.89223755  0.77887872  0.20639231     0.08200
H4142       H  0.97523858  0.79818613  0.16696934     0.05700
H4143       H  0.97665308  0.86815970  0.22587304     0.05600
Zr4144     Zr  0.87692728  0.68130618  0.12816989     2.17500
O4145       O  0.91987354  0.68976772  0.15968862    -0.51800
O4146       O  0.90850719  0.67579483  0.08868238    -0.75000
O4147       O  0.86114964  0.63319794  0.15501778    -0.81800
O4148       O  0.90265617  0.76786700  0.14051848    -0.83600
O4149       O  0.81483613  0.59468862  0.13265493    -0.79200
O4150       O  0.90856860  0.73212636  0.16145034    -0.90800
O4151       O  0.88547674  0.66190009  0.03912550    -0.76800
O4152       O  0.84525667  0.64622521  0.08433619    -0.86300
O4153       O  0.88314918  0.71187726  0.08353309    -0.86000
O4154       O  0.82447431  0.65038375  0.14634463    -0.72700
O4155       O  0.85860706  0.71137667  0.14455965    -0.84900
Zr4156     Zr  0.78062547  0.67723532  0.07820850     2.26400
Zr4157     Zr  0.79325084  0.61606055  0.10132831     2.06300
Zr4158     Zr  0.86347201  0.74099711  0.10021114     2.10000
Zr4159     Zr  0.85072807  0.67690922  0.04056378     1.78800
O4160       O  0.86371201  0.78324398  0.12615162    -0.93700
O4161       O  0.83035496  0.63327996  0.00179925    -0.41500
O4162       O  0.83143931  0.70628964  0.05723384    -0.78100
O4163       O  0.79882325  0.64712820  0.05722394    -0.96800
O4164       O  0.77684560  0.64681336  0.12116927    -0.90100
O4165       O  0.81247269  0.71301395  0.12079158    -0.92900
C4166       C  0.90602342  0.66633577  0.05894565     1.00800
C4167       C  0.91407417  0.75969794  0.16121079     1.13700
C4168       C  0.83810260  0.60449240  0.15149093     1.04500
O4169       O  0.79032956  0.57549412  0.06806724    -0.95100
O4170       O  0.74472998  0.58929110  0.06912567    -0.90800
O4171       O  0.74199933  0.62806460  0.05160626    -0.84000
C4172       C  0.73194067  0.59932108  0.05229672     1.11200
O4173       O  0.84323775  0.70294070  0.21080369    -0.97100
Zr4174     Zr  0.80827205  0.68200486  0.16410140     1.88900
O4175       O  0.74020157  0.66358949  0.11803359    -0.73700
O4176       O  0.75276900  0.58004853  0.13701505    -0.53000
O4177       O  0.78850382  0.64497633  0.20706711    -0.97700
O4178       O  0.80438174  0.72187643  0.18966430    -0.54900
O4179       O  0.75435422  0.65608833  0.16619979    -0.74200
C4180       C  0.73439656  0.65369981  0.14706929     0.98100
O4181       O  0.74034521  0.67613853  0.04873621    -0.63100
O4182       O  0.90912528  0.77689710  0.06999304    -0.57900
O4183       O  0.79725446  0.72636244  0.05165572    -0.94500
O4184       O  0.84819855  0.76210388  0.06162029    -0.93000
O4185       O  0.89443915  0.72197548  0.01564336    -0.93300
O4186       O  0.83818048  0.68521676  0.98727193    -0.92100
C4187       C  0.82281589  0.75319140  0.04816516     1.16900
H4188       H  0.90438705  0.72493198  0.07761968     0.32900
H4189       H  0.78792642  0.63460664  0.03809319     0.43700
H4190       H  0.80648296  0.72667502  0.12652778     0.37300
H4191       H  0.82158914  0.63909663  0.16538289     0.33700
H4192       H  0.84763463  0.63905471  0.98759028     0.25500
H4193       H  0.74971107  0.55990210  0.13225898     0.31500
H4194       H  0.77706176  0.65039099  0.22099362     0.37400
H4195       H  0.90247905  0.71330063  0.00083420     0.31800
H4196       H  0.91193209  0.79711959  0.07273207     0.30700
H4197       H  0.88031176  0.80221397  0.11573116     0.32400
H4198       H  0.79819723  0.71517955  0.21198046     0.31400
H4199       H  0.81832106  0.68246306  0.98981197     0.35400
H4200       H  0.73975000  0.69323271  0.05830254     0.28100
H4201       H  0.92270598  0.67375019  0.15149269     0.32300
H4202       H  0.83053545  0.69930165  0.22978030     0.35200
H4203       H  0.92637326  0.77966134  0.08252085     0.27800
H4204       H  0.74758876  0.68219441  0.02651327     0.40700
H4205       H  0.81184901  0.58239617  0.06600440     0.30700
H4206       H  0.82741141  0.61619055  0.01446042     0.38300
H4207       H  0.78601442  0.71890801  0.17957508     0.30200
H4208       H  0.76237302  0.58652788  0.15886250     0.30200
H4209       H  0.91203216  0.68346817  0.18169482     0.30500
Zr4210     Zr  0.85517055  0.92803583  0.05790999     2.17500
O4211       O  0.88952883  0.94152743  0.01291051    -0.51800
O4212       O  0.84658994  0.87887874  0.03986406    -0.75000
O4213       O  0.90923714  0.95377849  0.07768836    -0.81800
O4214       O  0.79094982  0.90754833  0.00610070    -0.83600
O4215       O  0.91036978  0.95166331  0.13237744    -0.79200
O4216       O  0.84094190  0.94510179  0.00964426    -0.90800
O4217       O  0.81181683  0.84002302  0.07133320    -0.76800
O4218       O  0.84609486  0.90073994  0.10642766    -0.86300
O4219       O  0.80161508  0.88639549  0.05893123    -0.86000
O4220       O  0.87026922  0.96536271  0.10209885    -0.72700
O4221       O  0.82778297  0.95157159  0.05726242    -0.84900
Zr4222     Zr  0.78125984  0.92127006  0.15100327     2.26400
Zr4223     Zr  0.86046431  0.93735917  0.15059557     2.06300
Zr4224     Zr  0.77451036  0.90993549  0.05916592     2.10000
Zr4225     Zr  0.79263553  0.86024294  0.10747370     1.78800
O4226       O  0.76691441  0.94480722  0.03074667    -0.93700
O4227       O  0.81045032  0.83639291  0.14126365    -0.41500
O4228       O  0.76506702  0.88309216  0.10787925    -0.78100
O4229       O  0.80700472  0.89574559  0.15154079    -0.96800
O4230       O  0.83458095  0.96219648  0.14993994    -0.90100
O4231       O  0.78834563  0.94704055  0.10205407    -0.92900
C4232       C  0.83059334  0.85046651  0.04838147     1.00800
C4233       C  0.81457311  0.93163634  0.99494173     1.13700
C4234       C  0.92345088  0.95849656  0.10496490     1.04500
O4235       O  0.87837661  0.91087132  0.17927801    -0.95100
O4236       O  0.84099885  0.92594788  0.20569777    -0.90800
O4237       O  0.79174026  0.91133688  0.20427217    -0.84000
C4238       C  0.81498129  0.91521993  0.21892229     1.11200
O4239       O  0.88679687  0.52874252  0.07280309    -0.97100
Zr4240     Zr  0.84197581  0.98777000  0.10093673     1.88900
O4241       O  0.79691341  0.97243028  0.17159762    -0.73700
O4242       O  0.89591438  0.98680500  0.17944937    -0.53000
O4243       O  0.87721949  0.52854217  0.14000042    -0.97700
O4244       O  0.83068270  0.51305963  0.06071831    -0.54900
O4245       O  0.81024552  0.99984446  0.12711875    -0.74200
C4246       C  0.80584085  0.99729540  0.15716625     0.98100
O4247       O  0.74473504  0.91033479  0.19310185    -0.63100
O4248       O  0.73140607  0.86471991  0.03001706    -0.57900
O4249       O  0.72742869  0.89123543  0.13226742    -0.94500
O4250       O  0.72466317  0.89279165  0.07778623    -0.93000
O4251       O  0.74728516  0.81914979  0.07703518    -0.93300
O4252       O  0.75346168  0.82053626  0.14171727    -0.92100
C4253       C  0.71251684  0.88506413  0.10545392     1.16900
H4254       H  0.79505576  0.87210711  0.04054182     0.32900
H4255       H  0.80202483  0.88240330  0.16930975     0.43700
H4256       H  0.77470620  0.95344017  0.10033522     0.37300
H4257       H  0.89152476  0.98268480  0.10139989     0.33700
H4258       H  0.80052874  0.81509724  0.13184049     0.25500
H4259       H  0.90804854  0.98281186  0.19373863     0.31500
H4260       H  0.87354688  0.54484885  0.13825510     0.37400
H4261       H  0.74913563  0.80150007  0.07588997     0.31800
H4262       H  0.72950745  0.87272173  0.00958638     0.30700
H4263       H  0.75089172  0.93137960  0.01412033     0.32400
H4264       H  0.83631986  0.53277122  0.07150048     0.31400
H4265       H  0.74341216  0.82987848  0.15127081     0.35400
H4266       H  0.73355627  0.91909359  0.18604714     0.28100
H4267       H  0.90074146  0.93216886  0.01730835     0.32300
H4268       H  0.89055795  0.54856638  0.08086851     0.35200
H4269       H  0.73875976  0.85185737  0.02361371     0.27800
H4270       H  0.72934690  0.88753145  0.19238950     0.40700
H4271       H  0.85979589  0.88958532  0.18181147     0.30700
H4272       H  0.83238605  0.84709599  0.13626541     0.38300
H4273       H  0.80922600  0.00159024  0.05906060     0.30200
H4274       H  0.91051689  0.00053982  0.16301584     0.30200
H4275       H  0.90513179  0.96421420  0.01559063     0.30500
C4276       C  0.83673513  0.58050444  0.17077544     0.02600
C4277       C  0.81795203  0.54968626  0.15925471    -0.13500
C4278       C  0.81601201  0.52589448  0.17557988     0.00100
C4279       C  0.83098855  0.53231957  0.20545359    -0.12100
C4280       C  0.84955937  0.56289693  0.21814505     0.02600
C4281       C  0.85265310  0.58714771  0.20035527    -0.11500
H4282       H  0.80631238  0.54428774  0.13601376     0.08200
H4283       H  0.82989824  0.51385942  0.21767422     0.05700
H4284       H  0.86699300  0.61098620  0.20958470     0.05600
C4285       C  0.66735526  0.61062169  0.20404085     0.02600
C4286       C  0.69605735  0.62339640  0.18980093    -0.13500
C4287       C  0.70304877  0.63793535  0.15994854     0.00100
C4288       C  0.68054761  0.63856609  0.14386786    -0.12100
C4289       C  0.65203721  0.62645315  0.15799474     0.02600
C4290       C  0.64530991  0.61190584  0.18757854    -0.11500
H4291       H  0.71350800  0.62304399  0.20263092     0.08200
H4292       H  0.68604496  0.65041592  0.12139319     0.05700
H4293       H  0.62354981  0.60323571  0.19866980     0.05600
Zr4294     Zr  0.56675669  0.63137804  0.14955453     2.17500
O4295       O  0.55008251  0.59575478  0.19361971    -0.51800
O4296       O  0.61059834  0.63082911  0.16210643    -0.75000
O4297       O  0.53501622  0.57736600  0.13012393    -0.81800
O4298       O  0.59405392  0.69648238  0.20724099    -0.83600
O4299       O  0.52642010  0.57384094  0.07586655    -0.79200
O4300       O  0.55418815  0.64657893  0.20010589    -0.90800
O4301       O  0.63745382  0.64479357  0.11647545    -0.76800
O4302       O  0.58882464  0.63504681  0.09842901    -0.86300
O4303       O  0.61384086  0.68233017  0.14972534    -0.86000
O4304       O  0.52943675  0.62209546  0.10943532    -0.72700
O4305       O  0.55322288  0.66709601  0.15600509    -0.84900
Zr4306     Zr  0.58308342  0.71180281  0.06433652     2.26400
Zr4307     Zr  0.55271168  0.62720489  0.05798627     2.06300
Zr4308     Zr  0.59985907  0.71789171  0.15468942     2.10000
Zr4309     Zr  0.63505148  0.68604271  0.09854695     1.78800
O4310       O  0.57672463  0.73796408  0.18760349    -0.93700
O4311       O  0.65640421  0.67399559  0.05369384    -0.41500
O4312       O  0.62168881  0.72214545  0.10323172    -0.78100
O4313       O  0.59981772  0.67829227  0.05822289    -0.96800
O4314       O  0.53679428  0.66087780  0.06542822    -0.90100
O4315       O  0.56238867  0.70928917  0.11608817    -0.92900
C4316       C  0.63171351  0.63379829  0.14449501     1.00800
C4317       C  0.56906935  0.67235166  0.21685148     1.13700
C4318       C  0.52338113  0.56182048  0.10335741     1.04500
O4319       O  0.56994280  0.59983225  0.02770249    -0.95100
O4320       O  0.56767916  0.64938306  0.00375987    -0.90800
O4321       O  0.58642732  0.70060808  0.00833980    -0.84000
C4322       C  0.58029139  0.67655530  0.99195894     1.11200
O4323       O  0.97654119  0.61822265  0.15012269    -0.97100
Zr4324     Zr  0.51630025  0.65817545  0.11741083     1.88900
O4325       O  0.53457807  0.70010559  0.04466324    -0.73700
O4326       O  0.50434721  0.60018690  0.02769854    -0.53000
O4327       O  0.96960282  0.62420879  0.08552717    -0.97700
O4328       O  0.99995422  0.67698930  0.16101700    -0.54900
O4329       O  0.51220851  0.69531337  0.09124114    -0.74200
C4330       C  0.51150110  0.69402812  0.06080246     0.98100
O4331       O  0.61227412  0.75277746  0.02599239    -0.63100
O4332       O  0.64982375  0.75370832  0.18102232    -0.57900
O4333       O  0.60254152  0.76337455  0.08525961    -0.94500
O4334       O  0.62226462  0.76976953  0.13585211    -0.93000
O4335       O  0.67897498  0.71453608  0.13575655    -0.93300
O4336       O  0.67901936  0.73082352  0.07366744    -0.92100
C4337       C  0.61800295  0.77999974  0.11030648     1.16900
H4338       H  0.62759946  0.68588331  0.16719321     0.32900
H4339       H  0.61151866  0.68206796  0.03912745     0.43700
H4340       H  0.55889417  0.72517103  0.11994015     0.37300
H4341       H  0.51030646  0.60196071  0.11105745     0.33700
H4342       H  0.67387043  0.67483524  0.06328901     0.25500
H4343       H  0.50358752  0.58338734  0.01530818     0.31500
H4344       H  0.95477266  0.62778692  0.09484763     0.37400
H4345       H  0.69214495  0.70769893  0.12938266     0.31800
H4346       H  0.65426068  0.74037053  0.19223536     0.30700
H4347       H  0.59166802  0.74995923  0.20554434     0.32400
H4348       H  0.00998055  0.69929322  0.15728286     0.31400
H4349       H  0.67001927  0.73635985  0.05679738     0.35400
H4350       H  0.60232896  0.76381323  0.02464233     0.28100
H4351       H  0.55738854  0.58259821  0.18850296     0.32300
H4352       H  0.98767882  0.61499933  0.16672683     0.35200
H4353       H  0.66446648  0.76222698  0.16317189     0.27800
H4354       H  0.63265806  0.76794854  0.03626427     0.40700
H4355       H  0.59036451  0.61639813  0.01985894     0.30700
H4356       H  0.64089661  0.65169195  0.04832861     0.38300
H4357       H  0.51070607  0.67719332  0.18060192     0.30200
H4358       H  0.48846779  0.58933060  0.04414660     0.30200
H4359       H  0.02748936  0.58200071  0.19126209     0.30500
C4360       C  0.92900119  0.66153527  0.04584616     0.02600
C4361       C  0.95863540  0.67914372  0.05916758    -0.13500
C4362       C  0.98199795  0.67866730  0.04466954     0.00100
C4363       C  0.97559000  0.65923594  0.01749214    -0.12100
C4364       C  0.94588979  0.64071486  0.50414828     0.02600
C4365       C  0.92285095  0.64236982  0.01791293    -0.11500
H4366       H  0.96387213  0.69406005  0.08038781     0.08200
H4367       H  0.99369166  0.65947200  0.50622872     0.05700
H4368       H  0.90034930  0.63019639  0.50606186     0.05600
C4369       C  0.97818096  0.52967629  0.37375617     0.02600
C4370       C  0.95682541  0.99711440  0.36890905    -0.13500
C4371       C  0.96665567  0.97866751  0.35704680     0.00100
C4372       C  0.49786584  0.49303396  0.35040394    -0.12100
C4373       C  0.51904268  0.52499700  0.35696517     0.02600
C4374       C  0.50906182  0.54281129  0.36853314    -0.11500
H4375       H  0.93267661  0.98644551  0.37262741     0.08200
H4376       H  0.50557729  0.97905713  0.34183387     0.05700
H4377       H  0.52556160  0.56771262  0.37230898     0.05600
Zr4378     Zr  0.62089653  0.58278912  0.39877506     2.17500
O4379       O  0.58021737  0.56162973  0.43813629    -0.51800
O4380       O  0.61906745  0.62714479  0.41474332    -0.75000
O4381       O  0.63572489  0.57283133  0.45053556    -0.81800
O4382       O  0.56345167  0.54655481  0.32566737    -0.83600
O4383       O  0.68566699  0.61053299  0.45023992    -0.79200
O4384       O  0.56772806  0.54975883  0.38051714    -0.90800
O4385       O  0.65091450  0.66765812  0.38352563    -0.76800
O4386       O  0.67276175  0.62756467  0.39913528    -0.86300
O4387       O  0.62623956  0.60938620  0.35080280    -0.86000
O4388       O  0.65100192  0.56151262  0.39759945    -0.72700
O4389       O  0.60835320  0.54736756  0.35331333    -0.84900
Zr4390     Zr  0.69836828  0.60019643  0.30635465     2.26400
Zr4391     Zr  0.70273931  0.60683575  0.39759984     2.06300
Zr4392     Zr  0.61541054  0.57497234  0.30540334     2.10000
Zr4393     Zr  0.67807258  0.65358558  0.35093148     1.78800
O4394       O  0.58400288  0.52948511  0.26941653    -0.93700
O4395       O  0.71746497  0.69847970  0.38377009    -0.41500
O4396       O  0.66740316  0.61959176  0.30583484    -0.78100
O4397       O  0.71008067  0.63582233  0.35084871    -0.96800
O4398       O  0.69179150  0.57197678  0.35325997    -0.90100
O4399       O  0.64599096  0.55546829  0.30400250    -0.92900
C4400       C  0.63072941  0.65477852  0.40509957     1.00800
C4401       C  0.55211666  0.54074118  0.35395800     1.13700
C4402       C  0.66279170  0.58673898  0.46300312     1.04500
O4403       O  0.74489403  0.64152645  0.43529379    -0.95100
O4404       O  0.75383131  0.63320050  0.37681762    -0.90800
O4405       O  0.74801173  0.61468143  0.32511827    -0.84000
C4406       C  0.76425590  0.63033967  0.35024241     1.11200
O4407       O  0.61774774  0.99482719  0.39707600    -0.97100
Zr4408     Zr  0.63951675  0.52833930  0.35135877     1.88900
O4409       O  0.69344655  0.55548678  0.28169905    -0.73700
O4410       O  0.70904982  0.56800551  0.41804275    -0.53000
O4411       O  0.63701774  0.48129065  0.35913966    -0.97700
O4412       O  0.59606172  0.99532001  0.31434292    -0.54900
O4413       O  0.68396055  0.53391393  0.32881335    -0.74200
C4414       C  0.68560285  0.53227364  0.29839061     0.98100
O4415       O  0.74148638  0.64105191  0.27591502    -0.63100
O4416       O  0.59342210  0.60065253  0.28349482    -0.57900
O4417       O  0.68487636  0.60223847  0.25177636    -0.94500
O4418       O  0.63718766  0.59174184  0.25163273    -0.93000
O4419       O  0.65768687  0.67267126  0.31377893    -0.93300
O4420       O  0.71841133  0.69531755  0.31934269    -0.92100
C4421       C  0.66242212  0.60024802  0.23776130     1.16900
H4422       H  0.61215087  0.61528594  0.35043134     0.32900
H4423       H  0.73076357  0.65418151  0.34948241     0.43700
H4424       H  0.64112006  0.54276772  0.28456836     0.37300
H4425       H  0.64849078  0.54880682  0.41518798     0.33700
H4426       H  0.71222698  0.71366148  0.38265692     0.25500
H4427       H  0.72926809  0.57415642  0.41022119     0.31500
H4428       H  0.62423138  0.96793567  0.33280164     0.37400
H4429       H  0.66389373  0.69299241  0.32339824     0.31800
H4430       H  0.57882321  0.58605334  0.26634909     0.30700
H4431       H  0.57063838  0.53351992  0.25750235     0.32400
H4432       H  0.58184585  0.97639499  0.32634660     0.31400
H4433       H  0.71725102  0.68510722  0.29842197     0.35400
H4434       H  0.73378480  0.65148071  0.26431531     0.28100
H4435       H  0.58903044  0.57627793  0.45710482     0.32300
H4436       H  0.59762808  0.99143512  0.39996667     0.35200
H4437       H  0.58027923  0.60019136  0.30059391     0.27800
H4438       H  0.75604242  0.65714040  0.29212874     0.40700
H4439       H  0.74751591  0.66166533  0.43417152     0.30700
H4440       H  0.71312959  0.69155831  0.40621067     0.38300
H4441       H  0.60560078  0.48422440  0.29923000     0.30200
H4442       H  0.71221984  0.57250579  0.44158667     0.30200
H4443       H  0.57722906  0.54237001  0.44543978     0.30500
C4444       C  0.59265833  0.68229521  0.45902849     0.02600
C4445       C  0.60110486  0.70958936  0.44353909    -0.13500
C4446       C  0.61966438  0.71947969  0.41621235     0.00100
C4447       C  0.62933348  0.70139384  0.40431037    -0.12100
C4448       C  0.62022813  0.67340805  0.41869237     0.02600
C4449       C  0.60164428  0.66391983  0.44579792    -0.11500
H4450       H  0.59422647  0.72387183  0.45357543     0.08200
H4451       H  0.64342377  0.70886944  0.38317841     0.05700
H4452       H  0.59577045  0.64323252  0.45773175     0.05600
C4453       C  0.55437368  0.67641482  0.24474784     0.02600
C4454       C  0.57072715  0.70435188  0.26321569    -0.13500
C4455       C  0.55550273  0.71311704  0.28321806     0.00100
C4456       C  0.52386766  0.69383171  0.28498922    -0.12100
C4457       C  0.50737985  0.66514990  0.26794960     0.02600
C4458       C  0.52258618  0.65609691  0.24843659    -0.11500
H4459       H  0.59532236  0.72024226  0.26071881     0.08200
H4460       H  0.51225109  0.70113555  0.29981159     0.05700
H4461       H  0.00909407  0.63452750  0.23428081     0.05600
Zr4462     Zr  0.91176412  0.62556433  0.30714842     2.17500
O4463       O  0.91504806  0.66535181  0.27496776    -0.51800
O4464       O  0.88219937  0.59792021  0.25951947    -0.75000
O4465       O  0.95881472  0.65496919  0.27809848    -0.81800
O4466       O  0.84141628  0.60412363  0.34404484    -0.83600
O4467       O  0.96376190  0.61640867  0.27993717    -0.79200
O4468       O  0.88338082  0.64592464  0.32318940    -0.90800
O4469       O  0.86265852  0.54723596  0.26546954    -0.76800
O4470       O  0.92397251  0.58857857  0.30047553    -0.86300
O4471       O  0.86716582  0.57698222  0.32323145    -0.86000
O4472       O  0.95738111  0.64567542  0.34003206    -0.72700
O4473       O  0.90355914  0.63336201  0.36220575    -0.84900
Zr4474     Zr  0.92083224  0.57117390  0.40849195     2.26400
Zr4475     Zr  0.96792126  0.60701510  0.33535383     2.06300
Zr4476     Zr  0.86144920  0.58368455  0.37920304     2.10000
Zr4477     Zr  0.88026682  0.54149361  0.31806638     1.78800
O4478       O  0.85432937  0.61092964  0.42281227    -0.93700
O4479       O  0.90136451  0.52252974  0.28001237    -0.41500
O4480       O  0.87981861  0.55413736  0.37218733    -0.78100
O4481       O  0.92376387  0.55884178  0.35246306    -0.96800
O4482       O  0.96395237  0.61881354  0.39068051    -0.90100
O4483       O  0.90535590  0.60547499  0.41286263    -0.92900
C4484       C  0.86594491  0.56961455  0.24957511     1.00800
C4485       C  0.85599732  0.63142752  0.33317585     1.13700
C4486       C  0.97452450  0.64413271  0.27310663     1.04500
O4487       O  0.00421386  0.60326422  0.30379254    -0.95100
O4488       O  0.97829000  0.57070036  0.35392748    -0.90800
O4489       O  0.94981305  0.54794291  0.39802306    -0.84000
C4490       C  0.96861739  0.55109762  0.37630814     1.11200
O4491       O  0.97593410  0.70600880  0.37408965    -0.97100
Zr4492     Zr  0.94861453  0.65364912  0.39433737     1.88900
O4493       O  0.93661420  0.60369220  0.46064089    -0.73700
O4494       O  0.51919482  0.65286851  0.35095837    -0.53000
O4495       O  0.00111743  0.68104432  0.41494786    -0.97700
O4496       O  0.92954804  0.68361484  0.41375155    -0.54900
O4497       O  0.94759841  0.65126092  0.45098422    -0.74200
C4498       C  0.94321928  0.63075888  0.46998264     0.98100
O4499       O  0.92660077  0.54675510  0.45440966    -0.63100
O4500       O  0.80562846  0.55205977  0.38127126    -0.57900
O4501       O  0.87331351  0.53037079  0.42877933    -0.94500
O4502       O  0.83727217  0.53650554  0.40993677    -0.93000
O4503       O  0.82499267  0.50341982  0.32024757    -0.93300
O4504       O  0.86424939  0.98843547  0.32494458    -0.92100
C4505       C  0.84576674  0.52170433  0.42533000     1.16900
H4506       H  0.84876965  0.57006413  0.31095552     0.32900
H4507       H  0.92405293  0.54089577  0.34901721     0.43700
H4508       H  0.89795039  0.60620149  0.43376008     0.37300
H4509       H  0.97453768  0.66555712  0.33327259     0.33700
H4510       H  0.90526996  0.53423028  0.26027255     0.25500
H4511       H  0.53074991  0.65972729  0.33076608     0.31500
H4512       H  0.00297054  0.69538878  0.43230830     0.37400
H4513       H  0.81948262  0.50666181  0.34198800     0.31800
H4514       H  0.80030673  0.56685408  0.38654085     0.30700
H4515       H  0.84896776  0.62367783  0.41186253     0.32400
H4516       H  0.94294060  0.69629779  0.43251339     0.31400
H4517       H  0.86645828  0.98727368  0.34841902     0.35400
H4518       H  0.91878226  0.02551337  0.44747011     0.28100
H4519       H  0.91867938  0.66135927  0.25259047     0.32300
H4520       H  0.98532643  0.72031556  0.39327140     0.35200
H4521       H  0.79836096  0.54493975  0.35868832     0.27800
H4522       H  0.94893004  0.55758231  0.45817021     0.40700
H4523       H  0.99147444  0.58666720  0.28715804     0.30700
H4524       H  0.92201848  0.53055446  0.28879630     0.38300
H4525       H  0.90953520  0.66814030  0.42322041     0.30200
H4526       H  0.51666773  0.66952193  0.35719999     0.30200
H4527       H  0.93427556  0.68523373  0.28211438     0.30500
C4528       C  0.53684103  0.81830343  0.42530178     0.02600
C4529       C  0.54806827  0.83643037  0.45468263    -0.13500
C4530       C  0.53002252  0.84361860  0.47244234     0.00100
C4531       C  0.00068579  0.83194940  0.45999838    -0.12100
C4532       C  0.99032545  0.81588641  0.43003539     0.02600
C4533       C  0.50791168  0.80831910  0.41348573    -0.11500
H4534       H  0.57138106  0.84626508  0.46269322     0.08200
H4535       H  0.98744752  0.83918034  0.47157752     0.05700
H4536       H  0.50081041  0.79793867  0.38929995     0.05600
Zr4537     Zr  0.70134737  0.89547752  0.33700137     2.17500
O4538       O  0.74313373  0.93916026  0.30841907    -0.51800
O4539       O  0.73942888  0.92756702  0.38119295    -0.75000
O4540       O  0.68658197  0.92905297  0.31165473    -0.81800
O4541       O  0.73163052  0.84373625  0.32991905    -0.83600
O4542       O  0.63612554  0.90858944  0.31944019    -0.79200
O4543       O  0.73772284  0.88710741  0.31105818    -0.90800
O4544       O  0.72145517  0.90368755  0.42870291    -0.76800
O4545       O  0.66932408  0.89316648  0.37852687    -0.86300
O4546       O  0.70147648  0.86428993  0.37798712    -0.86000
O4547       O  0.65124038  0.86842867  0.31213948    -0.72700
O4548       O  0.68270787  0.84451603  0.31433017    -0.84900
Zr4549     Zr  0.59832131  0.78737256  0.37289709     2.26400
Zr4550     Zr  0.61898768  0.86635055  0.35381427     2.06300
Zr4551     Zr  0.68158124  0.81361447  0.35650077     2.10000
Zr4552     Zr  0.66963148  0.86215074  0.41928370     1.78800
O4553       O  0.68378702  0.77826628  0.31939562    -0.93700
O4554       O  0.66706533  0.90101690  0.44943462    -0.41500
O4555       O  0.64854057  0.81106774  0.39738842    -0.78100
O4556       O  0.62006450  0.83810962  0.39700096    -0.96800
O4557       O  0.59824821  0.81589789  0.32970829    -0.90100
O4558       O  0.63181570  0.78892770  0.33319676    -0.92900
C4559       C  0.74267699  0.92421249  0.41134135     1.00800
C4560       C  0.74627341  0.86873867  0.31370156     1.13700
C4561       C  0.66187170  0.92832333  0.30706787     1.04500
O4562       O  0.62432252  0.90959534  0.38411356    -0.95100
O4563       O  0.57486080  0.84458131  0.38742205    -0.90800
O4564       O  0.56162650  0.79654795  0.39954225    -0.84000
C4565       C  0.55850914  0.81920964  0.40223527     1.11200
O4566       O  0.65401521  0.84668232  0.24120765    -0.97100
Zr4567     Zr  0.63272047  0.81857497  0.29064648     1.88900
O4568       O  0.56885426  0.74757081  0.32906156    -0.73700
O4569       O  0.57462242  0.85336545  0.32164040    -0.53000
O4570       O  0.59402278  0.81811087  0.25893444    -0.97700
O4571       O  0.65522876  0.79830095  0.25677911    -0.54900
O4572       O  0.59371175  0.76523530  0.28184806    -0.74200
C4573       C  0.57319212  0.74393687  0.29916765     0.98100
O4574       O  0.55559546  0.74183889  0.39813173    -0.63100
O4575       O  0.71667964  0.81558111  0.39580005    -0.57900
O4576       O  0.60879753  0.75530064  0.40222889    -0.94500
O4577       O  0.65256666  0.76310348  0.38305629    -0.93000
O4578       O  0.69019389  0.84329884  0.45643970    -0.93300
O4579       O  0.64164698  0.84293480  0.46914216    -0.92100
C4580       C  0.62774756  0.74785612  0.39947983     1.16900
H4581       H  0.72191994  0.87196497  0.38525195     0.32900
H4582       H  0.61039919  0.83868753  0.41624636     0.43700
H4583       H  0.62575583  0.76843213  0.32632762     0.37300
H4584       H  0.65071602  0.87757412  0.29269724     0.33700
H4585       H  0.67840671  0.90474410  0.46992728     0.25500
H4586       H  0.57243767  0.87050015  0.32654060     0.31500
H4587       H  0.58625496  0.80078110  0.24278804     0.37400
H4588       H  0.70767646  0.84559909  0.44516522     0.31800
H4589       H  0.72037343  0.80026850  0.38731044     0.30700
H4590       H  0.69718541  0.77378898  0.33048409     0.32400
H4591       H  0.64017596  0.78636793  0.23890269     0.31400
H4592       H  0.62428484  0.82123649  0.46371996     0.35400
H4593       H  0.55515071  0.74857486  0.42053076     0.28100
H4594       H  0.74558079  0.95790667  0.31807089     0.32300
H4595       H  0.64093666  0.83199436  0.22329045     0.35200
H4596       H  0.73644285  0.83596207  0.39333065     0.27800
H4597       H  0.53713290  0.73794818  0.38728071     0.40700
H4598       H  0.62256306  0.90405025  0.40695724     0.30700
H4599       H  0.68035294  0.92045245  0.43783518     0.38300
H4600       H  0.65421160  0.78226371  0.26964476     0.30200
H4601       H  0.58146755  0.85630578  0.29907927     0.30200
H4602       H  0.73510902  0.93695516  0.28623776     0.30500
Zr4603     Zr  0.91119270  0.87597508  0.30324090     2.17500
O4604       O  0.92761004  0.91435877  0.26221769    -0.51800
O4605       O  0.86522682  0.87558447  0.28994859    -0.75000
O4606       O  0.92720728  0.86105040  0.25265610    -0.81800
O4607       O  0.93234313  0.93006534  0.37997838    -0.83600
O4608       O  0.89101400  0.81086663  0.25326065    -0.79200
O4609       O  0.94333377  0.93006465  0.32689054    -0.90800
O4610       O  0.82404073  0.83950689  0.31820512    -0.76800
O4611       O  0.87148661  0.82132399  0.29989450    -0.86300
O4612       O  0.87920375  0.86481574  0.34883288    -0.86000
O4613       O  0.93686715  0.84997678  0.30741922    -0.72700
O4614       O  0.94177030  0.88971896  0.35202821    -0.84900
Zr4615     Zr  0.89522337  0.79726014  0.39475769     2.26400
Zr4616     Zr  0.89639475  0.79524683  0.30455164     2.06300
Zr4617     Zr  0.90907336  0.87719277  0.39705530     2.10000
Zr4618     Zr  0.83944523  0.81061949  0.34463398     1.78800
O4619       O  0.94995641  0.90926104  0.43697347    -0.93700
O4620       O  0.80416003  0.77503658  0.30178977    -0.41500
O4621       O  0.87002584  0.82293067  0.39205458    -0.78100
O4622       O  0.86225273  0.78292569  0.34788100    -0.96800
O4623       O  0.92853734  0.80922957  0.35119458    -0.90100
O4624       O  0.93424725  0.85174595  0.40066663    -0.92900
C4625       C  0.83724070  0.86218803  0.29935077     1.00800
C4626       C  0.94548898  0.94411597  0.35408178     1.13700
C4627       C  0.91552517  0.83306132  0.24144931     1.04500
O4628       O  0.86558221  0.75276993  0.26521324    -0.95100
O4629       O  0.87424738  0.74304011  0.32075586    -0.90800
O4630       O  0.87035420  0.74375659  0.37515119    -0.84000
C4631       C  0.86579105  0.72980000  0.34770611     1.11200
O4632       O  0.50488719  0.90869225  0.32572413    -0.97100
Zr4633     Zr  0.96656839  0.86401667  0.35570676     1.88900
O4634       O  0.94069624  0.80326843  0.41776329    -0.73700
O4635       O  0.93800665  0.79231930  0.28596867    -0.53000
O4636       O  0.99679335  0.85197707  0.32337305    -0.97700
O4637       O  0.00412535  0.90575056  0.39307711    -0.54900
O4638       O  0.98197370  0.83948444  0.38980003    -0.74200
C4639       C  0.96925106  0.81909857  0.41117196     0.98100
O4640       O  0.87824036  0.76085155  0.43820822    -0.63100
O4641       O  0.87847630  0.89448808  0.41836593    -0.57900
O4642       O  0.87296809  0.80211197  0.44268095    -0.94500
O4643       O  0.88321259  0.85028752  0.44608331    -0.93000
O4644       O  0.81100036  0.81824869  0.38492402    -0.93300
O4645       O  0.79583309  0.76239660  0.36522555    -0.92100
C4646       C  0.87147418  0.82302539  0.45689620     1.16900
H4647       H  0.87160539  0.87755665  0.35003977     0.32900
H4648       H  0.84474437  0.76156040  0.34681895     0.43700
H4649       H  0.94512077  0.85674512  0.42105805     0.37300
H4650       H  0.95227017  0.85535843  0.29165374     0.33700
H4651       H  0.78552089  0.77465108  0.30451142     0.25500
H4652       H  0.92883854  0.77644534  0.26808287     0.31500
H4653       H  0.01563502  0.85996891  0.33644879     0.37400
H4654       H  0.79310381  0.81473657  0.37303311     0.31800
H4655       H  0.89205078  0.91120293  0.43456705     0.30700
H4656       H  0.93979680  0.91230960  0.45509505     0.32400
H4657       H  0.52219234  0.90594198  0.39074034     0.31400
H4658       H  0.80405359  0.75864800  0.38448535     0.35400
H4659       H  0.85625994  0.74438656  0.43370284     0.28100
H4660       H  0.91458861  0.90255879  0.24293903     0.32300
H4661       H  0.52492270  0.91312227  0.33225188     0.35200
H4662       H  0.87629258  0.90527126  0.40066469     0.27800
H4663       H  0.88866091  0.75037459  0.43511057     0.40700
H4664       H  0.84468398  0.74772056  0.26707335     0.30700
H4665       H  0.81301713  0.78603368  0.28158284     0.38300
H4666       H  0.99594815  0.89899611  0.41486250     0.30200
H4667       H  0.95266083  0.81208678  0.27552739     0.30200
H4668       H  0.94842808  0.92076485  0.25643952     0.30500
C4669       C  0.80984134  0.90260728  0.25153806     0.02600
C4670       C  0.82764479  0.89266936  0.26248816    -0.13500
C4671       C  0.81891833  0.87395794  0.28916580     0.00100
C4672       C  0.79217096  0.86600549  0.30585150    -0.12100
C4673       C  0.77463483  0.87692586  0.29625680     0.02600
C4674       C  0.78396114  0.89536298  0.26902617    -0.11500
H4675       H  0.84726100  0.89774617  0.24892466     0.08200
H4676       H  0.78518902  0.85164112  0.32661478     0.05700
H4677       H  0.77016434  0.90292081  0.26046789     0.05600
C4678       C  0.80924485  0.94590885  0.46701316     0.02600
C4679       C  0.83023030  0.97713682  0.45971868    -0.13500
C4680       C  0.82259151  0.99094431  0.43650706     0.00100
C4681       C  0.79401682  0.97363042  0.42061980    -0.12100
C4682       C  0.77302412  0.94276543  0.42741099     0.02600
C4683       C  0.78074024  0.92893624  0.45031833    -0.11500
H4684       H  0.85221798  0.49071612  0.47248461     0.08200
H4685       H  0.78828528  0.98390636  0.40240537     0.05700
H4686       H  0.76411723  0.90474035  0.45547024     0.05600
C4687       C  0.66132689  0.95068334  0.28634287     0.02600
C4688       C  0.63889121  0.94019012  0.26094914    -0.13500
C4689       C  0.63333840  0.96071570  0.24627949     0.00100
C4690       C  0.65091195  0.99177051  0.25746920    -0.12100
C4691       C  0.67281922  0.50191468  0.28268179     0.02600
C4692       C  0.67814080  0.98182028  0.29659469    -0.11500
H4693       H  0.62594608  0.91611575  0.25246550     0.08200
H4694       H  0.64756985  0.50777688  0.24655909     0.05700
H4695       H  0.69383804  0.98976698  0.31712572     0.05600
C4696       C  0.84165915  0.64792319  0.33516574     0.02600
C4697       C  0.81004696  0.63144666  0.33914036    -0.13500
C4698       C  0.79721158  0.64727235  0.34774877     0.00100
C4699       C  0.81581398  0.67960280  0.35220977    -0.12100
C4700       C  0.84718344  0.69614098  0.34650170     0.02600
C4701       C  0.86005606  0.68043622  0.33751907    -0.11500
H4702       H  0.79553229  0.60630671  0.33656406     0.08200
H4703       H  0.80569367  0.69194021  0.35846722     0.05700
H4704       H  0.88455103  0.69353665  0.33396971     0.05600
C4705       C  0.50638751  0.98371788  0.61958804     0.02600
C4706       C  0.52169356  0.51561653  0.61496757    -0.13500
C4707       C  0.50612218  0.52812007  0.60498020     0.00100
C4708       C  0.97406927  0.50827899  0.59962911    -0.12100
C4709       C  0.95758870  0.97656037  0.60558611     0.02600
C4710       C  0.97396156  0.96410343  0.61542393    -0.11500
H4711       H  0.54643502  0.53088961  0.61814495     0.08200
H4712       H  0.96195764  0.51828237  0.59290728     0.05700
H4713       H  0.96172706  0.93945711  0.61902833     0.05600
C4714       C  0.62978385  0.85431776  0.58747659     0.02600
C4715       C  0.66177679  0.87524342  0.59188087    -0.13500
C4716       C  0.67875076  0.86560096  0.60598028     0.00100
C4717       C  0.66376612  0.83477040  0.61496153    -0.12100
C4718       C  0.63229979  0.81347088  0.60868929     0.02600
C4719       C  0.61533640  0.82342579  0.59562081    -0.11500
H4720       H  0.67345183  0.89912281  0.58498686     0.08200
H4721       H  0.67703960  0.82671027  0.62389129     0.05700
H4722       H  0.59086901  0.80689619  0.59132627     0.05600
C4723       C  0.85386910  0.81436349  0.98664320     0.02600
C4724       C  0.84950822  0.83526750  0.50239588    -0.13500
C4725       C  0.83333495  0.82754398  0.53093880     0.00100
C4726       C  0.82065576  0.79809631  0.54360856    -0.12100
C4727       C  0.82491375  0.77686298  0.52854448     0.02600
C4728       C  0.84147727  0.78502719  0.49999615    -0.11500
H4729       H  0.85936261  0.85804441  0.99264457     0.08200
H4730       H  0.80960361  0.79251986  0.56672166     0.05700
H4731       H  0.84612243  0.76926494  0.98912281     0.05600
Zr4732     Zr  0.60452020  0.92107940  0.55096430     2.17500
O4733       O  0.63786086  0.92659734  0.50750820    -0.51800
O4734       O  0.57120613  0.88425501  0.50683087    -0.75000
O4735       O  0.62415452  0.89062369  0.56255175    -0.81800
O4736       O  0.60742222  0.98705017  0.52885362    -0.83600
O4737       O  0.58406337  0.85173655  0.58876474    -0.79200
O4738       O  0.64085393  0.97498663  0.53265882    -0.90800
O4739       O  0.52232454  0.86415381  0.52074855    -0.76800
O4740       O  0.55744526  0.87830968  0.57219003    -0.86300
O4741       O  0.56821704  0.93401694  0.54686080    -0.86000
O4742       O  0.61507163  0.91671471  0.60697591    -0.72700
O4743       O  0.62489426  0.96807867  0.58321063    -0.84900
Zr4744     Zr  0.55549894  0.93499241  0.65901602     2.26400
Zr4745     Zr  0.56702097  0.87418797  0.62768567     2.06300
Zr4746     Zr  0.58759451  0.97931015  0.58234298     2.10000
Zr4747     Zr  0.52277593  0.89236290  0.56924560     1.78800
O4748       O  0.62978491  0.53076398  0.60202121    -0.93700
O4749       O  0.98165338  0.83769098  0.57552383    -0.41500
O4750       O  0.54690032  0.93606217  0.60408295    -0.78100
O4751       O  0.53140910  0.88794804  0.62438467    -0.96800
O4752       O  0.59026210  0.92099122  0.65924012    -0.88500
O4753       O  0.60106538  0.97850484  0.63737676    -0.92900
C4754       C  0.54206207  0.86524628  0.50192784     1.00800
C4755       C  0.63429216  0.99411055  0.52519815     1.13700
C4756       C  0.61126157  0.86547560  0.57796074     1.04500
O4757       O  0.53777337  0.81790726  0.62970855    -0.95100
O4758       O  0.52515440  0.85057577  0.66731562    -0.90800
O4759       O  0.51832060  0.88737494  0.68529868    -0.84000
C4760       C  0.51068483  0.85938994  0.68392052     1.11200
O4761       O  0.68410603  0.99481320  0.60885744    -0.97100
Zr4762     Zr  0.63612050  0.96392818  0.63730896     1.88900
O4763       O  0.59349163  0.95243423  0.70732389    -0.73700
O4764       O  0.59984120  0.87375252  0.66806074    -0.53000
O4765       O  0.67634167  0.95677781  0.64939964    -0.97700
O4766       O  0.66169897  0.51500440  0.66448370    -0.54900
O4767       O  0.63256950  0.94989740  0.69173114    -0.74200
C4768       C  0.61789168  0.95292981  0.71366961     0.98100
O4769       O  0.03862414  0.95040821  0.70529175    -0.63100
O4770       O  0.58315421  0.01726572  0.55574939    -0.57900
O4771       O  0.52702069  0.95822051  0.64566056    -0.94500
O4772       O  0.54436396  0.98024259  0.59720783    -0.93000
O4773       O  0.50513476  0.91180198  0.52904928    -0.93300
O4774       O  0.97325925  0.88304225  0.57888469    -0.92100
C4775       C  0.52651324  0.97256349  0.62115313     1.16900
H4776       H  0.56396335  0.93590405  0.52478286     0.32900
H4777       H  0.51048415  0.87210187  0.62930297     0.43700
H4778       H  0.60785644  0.99725665  0.64985840     0.37300
H4779       H  0.63091828  0.91367323  0.61112982     0.33700
H4780       H  0.97015217  0.83053786  0.55467018     0.25500
H4781       H  0.58653743  0.85336930  0.67801977     0.31500
H4782       H  0.68920174  0.97265650  0.66659033     0.37400
H4783       H  0.99828098  0.89753434  0.51034642     0.31800
H4784       H  0.60387005  0.03301501  0.54782410     0.30700
H4785       H  0.64848076  0.53287870  0.59455184     0.32400
H4786       H  0.68200511  0.52027091  0.67129677     0.31400
H4787       H  0.97521169  0.89143013  0.60111933     0.35400
H4788       H  0.04785904  0.97283957  0.70352907     0.28100
H4789       H  0.62979605  0.90515149  0.49986569     0.32300
H4790       H  0.68772715  0.01534217  0.60690542     0.35200
H4791       H  0.57056749  0.00632331  0.53598689     0.27800
H4792       H  0.01625955  0.93986272  0.70234589     0.40700
H4793       H  0.51966474  0.81008009  0.61542894     0.30700
H4794       H  0.49225778  0.82710178  0.57659228     0.38300
H4795       H  0.65082913  0.51162227  0.68489645     0.30200
H4796       H  0.61456512  0.87203305  0.65545422     0.30200
H4797       H  0.65773317  0.93430518  0.51825092     0.30500
C4798       C  0.66892411  0.57253445  0.98952177     0.02600
C4799       C  0.69608052  0.59066097  0.00793638    -0.13500
C4800       C  0.70432277  0.57787313  0.53141437     0.00100
C4801       C  0.68564046  0.54537101  0.53460704    -0.12100
C4802       C  0.65801790  0.52654077  0.51630998     0.02600
C4803       C  0.64979869  0.54047447  0.99410011    -0.11500
H4804       H  0.71083764  0.61535888  0.00406111     0.08200
H4805       H  0.69132631  0.53510433  0.55281083     0.05700
H4806       H  0.62852414  0.52620251  0.98023376     0.05600
C4807       C  0.93263653  0.82447631  0.72001558     0.02600
C4808       C  0.91708551  0.79415152  0.70569904    -0.13500
C4809       C  0.93238136  0.78417314  0.68714378     0.00100
C4810       C  0.96408413  0.80482753  0.68364514    -0.12100
C4811       C  0.98029810  0.83550126  0.69682063     0.02600
C4812       C  0.96440946  0.84482615  0.71551495    -0.11500
H4813       H  0.89236542  0.77867602  0.70712798     0.08200
H4814       H  0.97521792  0.79831857  0.66691342     0.05700
H4815       H  0.97661926  0.86831930  0.72567429     0.05600
Zr4816     Zr  0.87671885  0.68127039  0.62845542     2.17500
O4817       O  0.91990228  0.68974982  0.65950315    -0.51800
O4818       O  0.90820846  0.67575051  0.58888006    -0.75000
O4819       O  0.86107007  0.63324279  0.65529224    -0.81800
O4820       O  0.90290118  0.76791857  0.64079475    -0.83600
O4821       O  0.81446704  0.59481482  0.63342805    -0.79200
O4822       O  0.90828770  0.73193397  0.66200899    -0.90800
O4823       O  0.88504814  0.66165546  0.53937072    -0.76800
O4824       O  0.84479618  0.64603963  0.58480083    -0.86300
O4825       O  0.88286818  0.71170766  0.58369909    -0.86000
O4826       O  0.82432162  0.65045510  0.64681203    -0.72700
O4827       O  0.85861354  0.71147718  0.64500006    -0.84900
Zr4828     Zr  0.78054512  0.67733540  0.57859358     2.26400
Zr4829     Zr  0.79283999  0.61601886  0.60196402     2.06300
Zr4830     Zr  0.86351199  0.74106363  0.60063217     2.10000
Zr4831     Zr  0.85020438  0.67657690  0.54090235     1.78800
O4832       O  0.86343016  0.78301860  0.62683736    -0.93700
O4833       O  0.82911589  0.63252932  0.50254917    -0.41500
O4834       O  0.83137508  0.70628253  0.55779657    -0.78100
O4835       O  0.79842756  0.64692092  0.55772330    -0.96800
O4836       O  0.77665192  0.64697892  0.62167964    -0.90100
O4837       O  0.81247857  0.71312800  0.62112858    -0.92900
C4838       C  0.90566832  0.66619853  0.55917273     1.00800
C4839       C  0.91407475  0.75961782  0.66164394     1.13700
C4840       C  0.83792241  0.60457658  0.65191728     1.04500
O4841       O  0.78965238  0.57507614  0.56916266    -0.95100
O4842       O  0.74437248  0.58948819  0.56969041    -0.90800
O4843       O  0.74195365  0.62832658  0.55173225    -0.84000
C4844       C  0.73176058  0.59955478  0.55261124     1.11200
O4845       O  0.84290842  0.70205830  0.71141364    -0.97100
Zr4846     Zr  0.80826057  0.68218752  0.66450140     1.88900
O4847       O  0.74017052  0.66384278  0.61836123    -0.73700
O4848       O  0.75212267  0.57981666  0.63734338    -0.53000
O4849       O  0.78692182  0.64411961  0.70648890    -0.97700
O4850       O  0.80531955  0.72260488  0.69025367    -0.54900
O4851       O  0.75456132  0.65715368  0.66682879    -0.74200
C4852       C  0.73452778  0.65440820  0.64756437     0.98100
O4853       O  0.74036324  0.67655337  0.54931061    -0.63100
O4854       O  0.90911634  0.77702231  0.57036924    -0.57900
O4855       O  0.79749289  0.72635873  0.55168452    -0.94500
O4856       O  0.84831719  0.76231894  0.56215686    -0.93000
O4857       O  0.89332169  0.72083771  0.51445184    -0.93300
O4858       O  0.83664597  0.68529156  0.48837747    -0.92100
C4859       C  0.82300683  0.75326997  0.54841399     1.16900
H4860       H  0.90405417  0.72468913  0.57758248     0.32900
H4861       H  0.78757082  0.63436982  0.53859841     0.43700
H4862       H  0.80651163  0.72680747  0.62686541     0.37300
H4863       H  0.82153328  0.63927388  0.66591104     0.33700
H4864       H  0.84584593  0.63856743  0.48740991     0.25500
H4865       H  0.74964293  0.55987977  0.63313702     0.31500
H4866       H  0.77645788  0.65027231  0.72105410     0.37400
H4867       H  0.90073671  0.71169651  0.49940786     0.31800
H4868       H  0.91195299  0.79724972  0.57325579     0.30700
H4869       H  0.87930823  0.80194928  0.61579795     0.32400
H4870       H  0.79935235  0.71607271  0.71264817     0.31400
H4871       H  0.81831739  0.68524407  0.49221708     0.35400
H4872       H  0.74009414  0.69388827  0.55874255     0.28100
H4873       H  0.92218734  0.67323857  0.65175376     0.32300
H4874       H  0.83010489  0.69828827  0.73033278     0.35200
H4875       H  0.92638835  0.77971546  0.58277743     0.27800
H4876       H  0.74746341  0.68233505  0.52700166     0.40700
H4877       H  0.81102533  0.58134411  0.56799998     0.30700
H4878       H  0.82728074  0.61585743  0.51502298     0.38300
H4879       H  0.78696179  0.71985286  0.68042306     0.30200
H4880       H  0.76135671  0.58669076  0.65932869     0.30200
H4881       H  0.91245661  0.68420364  0.68174420     0.30500
Zr4882     Zr  0.85492608  0.92790574  0.55777030     2.17500
O4883       O  0.88939195  0.94162985  0.51283298    -0.51800
O4884       O  0.84617150  0.87869304  0.53959173    -0.75000
O4885       O  0.90902634  0.95353484  0.57756202    -0.81800
O4886       O  0.79040249  0.90786259  0.50598126    -0.83600
O4887       O  0.91028740  0.95165588  0.63225922    -0.79200
O4888       O  0.84058132  0.94501660  0.50957956    -0.90800
O4889       O  0.81206011  0.84005986  0.57167325    -0.76800
O4890       O  0.84592541  0.90064083  0.60630681    -0.86300
O4891       O  0.80136900  0.88626039  0.55884835    -0.86000
O4892       O  0.87015618  0.96534084  0.60187626    -0.72700
O4893       O  0.82747176  0.95134546  0.55726392    -0.84900
Zr4894     Zr  0.78126223  0.92140607  0.65097932     2.26400
Zr4895     Zr  0.86037269  0.93734472  0.65041600     2.06300
Zr4896     Zr  0.77419774  0.90973882  0.55932379     2.10000
Zr4897     Zr  0.79245081  0.86015473  0.60740359     1.78800
O4898       O  0.76601143  0.94418502  0.53095322    -0.93700
O4899       O  0.80950292  0.83560530  0.64119788    -0.41500
O4900       O  0.76484495  0.88299043  0.60805822    -0.78100
O4901       O  0.80691836  0.89573120  0.65144614    -0.96800
O4902       O  0.83460979  0.96231264  0.64978971    -0.90100
O4903       O  0.78825396  0.94706380  0.60200968    -0.92900
C4904       C  0.83051517  0.85038655  0.54843240     1.00800
C4905       C  0.81423799  0.93178891  0.49485093     1.13700
C4906       C  0.92331500  0.95836749  0.60482521     1.04500
O4907       O  0.87893739  0.91146769  0.67914010    -0.95100
O4908       O  0.84071248  0.92578779  0.70546946    -0.90800
O4909       O  0.79142941  0.91110539  0.70415027    -0.84000
C4910       C  0.81470722  0.91503943  0.71874997     1.11200
O4911       O  0.88643996  0.52822840  0.57219160    -0.97100
Zr4912     Zr  0.84188980  0.98779330  0.60072514     1.88900
O4913       O  0.79730898  0.97277803  0.67128274    -0.73700
O4914       O  0.89589574  0.98662102  0.67946864    -0.53000
O4915       O  0.87771055  0.52816614  0.63981633    -0.97700
O4916       O  0.83110221  0.51324201  0.56061773    -0.54900
O4917       O  0.81019889  0.00001653  0.62672805    -0.74200
C4918       C  0.80598882  0.99755671  0.65680717     0.98100
O4919       O  0.74518767  0.91180760  0.69311200    -0.63100
O4920       O  0.73124301  0.86404491  0.53059377    -0.57900
O4921       O  0.72732660  0.89144899  0.63256659    -0.94500
O4922       O  0.72448205  0.89304012  0.57810955    -0.93000
O4923       O  0.74720895  0.81958087  0.57642854    -0.93300
O4924       O  0.75307061  0.82034214  0.64138860    -0.92100
C4925       C  0.71236384  0.88535193  0.60579904     1.16900
H4926       H  0.79478692  0.87200688  0.54042211     0.32900
H4927       H  0.80194626  0.88235424  0.66917996     0.43700
H4928       H  0.77460342  0.95344942  0.60030832     0.37300
H4929       H  0.89141844  0.98263592  0.60110745     0.33700
H4930       H  0.80071765  0.81490379  0.63069937     0.25500
H4931       H  0.90916334  0.98301630  0.69225419     0.31500
H4932       H  0.87360413  0.54421692  0.63902944     0.37400
H4933       H  0.74940397  0.80219608  0.57418238     0.31800
H4934       H  0.72915623  0.87181477  0.51009004     0.30700
H4935       H  0.74836865  0.93023970  0.51611455     0.32400
H4936       H  0.83640199  0.53276904  0.57156157     0.31400
H4937       H  0.74196696  0.82903549  0.64956819     0.35400
H4938       H  0.73427557  0.92076127  0.68575867     0.28100
H4939       H  0.90081795  0.93251509  0.51731941     0.32300
H4940       H  0.89075325  0.54817250  0.58069531     0.35200
H4941       H  0.73880415  0.85134626  0.52429350     0.27800
H4942       H  0.72952388  0.88906764  0.69281961     0.40700
H4943       H  0.86076915  0.88978249  0.68069188     0.30700
H4944       H  0.83178602  0.84719236  0.63761905     0.38300
H4945       H  0.80969404  0.00135959  0.55766454     0.30200
H4946       H  0.90941943  0.00089374  0.66271611     0.30200
H4947       H  0.90480589  0.96435766  0.51547144     0.30500
C4948       C  0.83667946  0.58055821  0.67091969     0.02600
C4949       C  0.81808774  0.54979988  0.65915263    -0.13500
C4950       C  0.81602784  0.52592330  0.67544132     0.00100
C4951       C  0.83087435  0.53227313  0.70536890    -0.12100
C4952       C  0.84943193  0.56283898  0.71810513     0.02600
C4953       C  0.85250667  0.58712385  0.70049074    -0.11500
H4954       H  0.80661110  0.54453007  0.63583213     0.08200
H4955       H  0.82971605  0.51377157  0.71758097     0.05700
H4956       H  0.86677073  0.61092938  0.70983666     0.05600
C4957       C  0.66752593  0.61105172  0.70441066     0.02600
C4958       C  0.69625337  0.62395397  0.69022138    -0.13500
C4959       C  0.70323927  0.63862848  0.66046679     0.00100
C4960       C  0.68073830  0.63922858  0.64441196    -0.12100
C4961       C  0.65219673  0.62694454  0.65847799     0.02600
C4962       C  0.64547807  0.61237707  0.68803483    -0.11500
H4963       H  0.71370229  0.62354565  0.70298186     0.08200
H4964       H  0.68623620  0.65113708  0.62197589     0.05700
H4965       H  0.62368785  0.60361824  0.69910349     0.05600
Zr4966     Zr  0.56694232  0.63163080  0.64956767     2.17500
O4967       O  0.55023055  0.59599721  0.69360722    -0.51800
O4968       O  0.61070851  0.63116374  0.66243988    -0.75000
O4969       O  0.53522558  0.57766801  0.62993759    -0.81800
O4970       O  0.59402722  0.69701110  0.70729627    -0.83600
O4971       O  0.52648365  0.57404630  0.57568842    -0.79200
O4972       O  0.55424217  0.64706763  0.69990464    -0.90800
O4973       O  0.63728068  0.64462800  0.61663974    -0.76800
O4974       O  0.58891686  0.63509467  0.59844635    -0.86300
O4975       O  0.61415966  0.68248842  0.64960514    -0.86000
O4976       O  0.52964334  0.62229631  0.60945171    -0.72700
O4977       O  0.55360537  0.66745866  0.65584015    -0.84900
Zr4978     Zr  0.58333359  0.71213873  0.56441981     2.26400
Zr4979     Zr  0.55291282  0.62745347  0.55800225     2.06300
Zr4980     Zr  0.60035284  0.71815806  0.65455315     2.10000
Zr4981     Zr  0.63520812  0.68597803  0.59836320     1.78800
O4982       O  0.57825779  0.73881545  0.68829587    -0.93700
O4983       O  0.65541755  0.67318551  0.55292925    -0.41500
O4984       O  0.62211686  0.72235602  0.60306797    -0.78100
O4985       O  0.59994922  0.67854553  0.55830458    -0.96800
O4986       O  0.53709685  0.66122187  0.56540202    -0.90100
O4987       O  0.56269374  0.70952149  0.61620795    -0.92900
C4988       C  0.63175391  0.63401392  0.64483098     1.00800
C4989       C  0.56903993  0.67278877  0.71676084     1.13700
C4990       C  0.52353076  0.56208499  0.60319598     1.04500
O4991       O  0.57125299  0.60111597  0.52772055    -0.95100
O4992       O  0.56781972  0.64950594  0.50384424    -0.90800
O4993       O  0.58654551  0.70073792  0.50845883    -0.84000
C4994       C  0.58037389  0.67666965  0.49207074     1.11200
O4995       O  0.97683805  0.61783677  0.65054376    -0.97100
Zr4996     Zr  0.51656189  0.65838579  0.61735184     1.88900
O4997       O  0.53473546  0.70044241  0.54491206    -0.73700
O4998       O  0.50469881  0.60073887  0.52745474    -0.53000
O4999       O  0.96911421  0.62428868  0.58612769    -0.97700
O5000       O  0.99980569  0.67676164  0.66123003    -0.54900
O5001       O  0.51244848  0.69562968  0.59153939    -0.74200
C5002       C  0.51165666  0.69430793  0.56110688     0.98100
O5003       O  0.61244382  0.75322567  0.52616477    -0.63100
O5004       O  0.65059916  0.75355284  0.68042214    -0.57900
O5005       O  0.60248646  0.76358283  0.58543928    -0.94500
O5006       O  0.62263087  0.77001631  0.63578858    -0.93000
O5007       O  0.67930293  0.71400727  0.63539071    -0.93300
O5008       O  0.67944575  0.72976100  0.57266138    -0.92100
C5009       C  0.61808910  0.78022131  0.61041612     1.16900
H5010       H  0.62794558  0.68608527  0.66706260     0.32900
H5011       H  0.61164121  0.68235690  0.53919866     0.43700
H5012       H  0.55918191  0.72537687  0.62018159     0.37300
H5013       H  0.51049304  0.60217973  0.61107616     0.33700
H5014       H  0.67150600  0.67167159  0.56245234     0.25500
H5015       H  0.50470223  0.58507565  0.51365784     0.31500
H5016       H  0.95455999  0.62819109  0.59559627     0.37400
H5017       H  0.69241814  0.70720815  0.62863050     0.31800
H5018       H  0.65401378  0.74026631  0.69328361     0.30700
H5019       H  0.59612523  0.75824859  0.69832414     0.32400
H5020       H  0.01038446  0.69921917  0.65791926     0.31400
H5021       H  0.67072422  0.73767900  0.55840046     0.35400
H5022       H  0.60240639  0.76417228  0.52483873     0.28100
H5023       H  0.55733646  0.58268618  0.68836779     0.32300
H5024       H  0.98823265  0.61597967  0.66805907     0.35200
H5025       H  0.66522242  0.76026696  0.66263187     0.27800
H5026       H  0.63279465  0.76844534  0.53647786     0.40700
H5027       H  0.58438087  0.59962455  0.54327184     0.30700
H5028       H  0.63872262  0.65155518  0.54628603     0.38300
H5029       H  0.50968463  0.67646954  0.68043394     0.30200
H5030       H  0.48877299  0.58847928  0.54349568     0.30200
H5031       H  0.02726183  0.58176275  0.69118866     0.30500
C5032       C  0.92869032  0.66143516  0.54609924     0.02600
C5033       C  0.95828937  0.67895661  0.55955592    -0.13500
C5034       C  0.98172453  0.67864448  0.54498676     0.00100
C5035       C  0.97538732  0.65938622  0.51765853    -0.12100
C5036       C  0.94609596  0.64067630  0.00399037     0.02600
C5037       C  0.92261209  0.64236630  0.51808645    -0.11500
H5038       H  0.96345085  0.69370170  0.58090798     0.08200
H5039       H  0.99383929  0.65916962  0.00613389     0.05700
H5040       H  0.90057005  0.63017521  0.00592138     0.05600
C5041       C  0.97813559  0.52945597  0.87376818     0.02600
C5042       C  0.95666164  0.99694915  0.86904039    -0.13500
C5043       C  0.96640933  0.97854600  0.85682709     0.00100
C5044       C  0.49777924  0.49336138  0.85035852    -0.12100
C5045       C  0.51901832  0.52531230  0.85698132     0.02600
C5046       C  0.50912567  0.54312828  0.86878232    -0.11500
H5047       H  0.93252596  0.98630506  0.87283356     0.08200
H5048       H  0.50559878  0.97915996  0.84205733     0.05700
H5049       H  0.52566085  0.56802006  0.87260836     0.05600
Zr5050     Zr  0.62097523  0.58282211  0.89865601     2.17500
O5051       O  0.58051587  0.56201684  0.93823019    -0.51800
O5052       O  0.61946766  0.62737417  0.91464733    -0.75000
O5053       O  0.63577840  0.57271316  0.95036156    -0.81800
O5054       O  0.56331747  0.54649644  0.82554095    -0.83600
O5055       O  0.68572541  0.61034900  0.95008522    -0.79200
O5056       O  0.56778824  0.55027374  0.88037331    -0.90800
O5057       O  0.65160621  0.66806450  0.88373578    -0.76800
O5058       O  0.67281872  0.62754988  0.89886206    -0.86300
O5059       O  0.62629666  0.60946528  0.85074642    -0.86000
O5060       O  0.65097477  0.56142198  0.89739148    -0.72700
O5061       O  0.60823387  0.54724328  0.85326639    -0.84900
Zr5062     Zr  0.69826513  0.59983113  0.80633179     2.26400
Zr5063     Zr  0.70272915  0.60676817  0.89741437     2.06300
Zr5064     Zr  0.61530370  0.57496145  0.80542681     2.10000
Zr5065     Zr  0.67817738  0.65356515  0.85065048     1.78800
O5066       O  0.58304747  0.53025801  0.76876268    -0.93700
O5067       O  0.71831059  0.69823851  0.88311511    -0.41500
O5068       O  0.66736985  0.61931292  0.80580681    -0.78100
O5069       O  0.71009330  0.63566686  0.85059679    -0.96800
O5070       O  0.69167014  0.57163905  0.85327006    -0.90100
O5071       O  0.64574128  0.55525992  0.80391548    -0.92900
C5072       C  0.63129268  0.65509937  0.90519419     1.00800
C5073       C  0.55208041  0.54101577  0.85386700     1.13700
C5074       C  0.66284519  0.58658078  0.96282796     1.04500
O5075       O  0.74451246  0.64260031  0.93495051    -0.95100
O5076       O  0.75377375  0.63310781  0.87669319    -0.90800
O5077       O  0.74777418  0.61386472  0.82532339    -0.84000
C5078       C  0.76413282  0.62990072  0.85026563     1.11200
O5079       O  0.61176786  0.99466854  0.89564124    -0.97100
Zr5080     Zr  0.63933345  0.52810293  0.85122115     1.88900
O5081       O  0.69318934  0.55517349  0.78139239    -0.73700
O5082       O  0.71040759  0.56908691  0.91853143    -0.53000
O5083       O  0.63669468  0.48111602  0.86017653    -0.97700
O5084       O  0.59882884  0.99308727  0.81222919    -0.54900
O5085       O  0.68392658  0.53400785  0.82866552    -0.74200
C5086       C  0.68535105  0.53206896  0.79824637     0.98100
O5087       O  0.74102709  0.64061844  0.77553614    -0.63100
O5088       O  0.59423692  0.60175624  0.78417245    -0.57900
O5089       O  0.68496749  0.60233122  0.75191311    -0.94500
O5090       O  0.63727693  0.59183505  0.75181843    -0.93000
O5091       O  0.65746699  0.67287529  0.81421395    -0.93300
O5092       O  0.71778860  0.69472955  0.81793613    -0.92100
C5093       C  0.66253782  0.60043398  0.73798008     1.16900
H5094       H  0.61226978  0.61544509  0.85047333     0.32900
H5095       H  0.73078897  0.65398265  0.84913799     0.43700
H5096       H  0.64082001  0.54258012  0.78445232     0.37300
H5097       H  0.64848456  0.54869915  0.91495697     0.33700
H5098       H  0.71380439  0.71394756  0.88153291     0.25500
H5099       H  0.72918747  0.57368503  0.90807325     0.31500
H5100       H  0.62837398  0.96862238  0.84089524     0.37400
H5101       H  0.66473730  0.69367612  0.82337452     0.31800
H5102       H  0.57996184  0.58775391  0.76651515     0.30700
H5103       H  0.57552095  0.53771566  0.75232798     0.32400
H5104       H  0.58210563  0.97682880  0.82538841     0.31400
H5105       H  0.71557986  0.68436893  0.79676679     0.35400
H5106       H  0.73361144  0.65210245  0.76572845     0.28100
H5107       H  0.58952759  0.57664972  0.95720173     0.32300
H5108       H  0.59049503  0.98840359  0.89254027     0.35200
H5109       H  0.58076383  0.60088260  0.80111583     0.27800
H5110       H  0.75659771  0.65590656  0.79161822     0.40700
H5111       H  0.74545917  0.66191588  0.93470245     0.30700
H5112       H  0.71367828  0.69162391  0.90564416     0.38300
H5113       H  0.60530395  0.48178197  0.80073706     0.30200
H5114       H  0.71668512  0.57584869  0.94137794     0.30200
H5115       H  0.57734167  0.54264959  0.94545130     0.30500
C5116       C  0.59270238  0.68222623  0.95892442     0.02600
C5117       C  0.60095512  0.70940622  0.94329902    -0.13500
C5118       C  0.61958399  0.71936828  0.91600079     0.00100
C5119       C  0.62952330  0.70147496  0.90425774    -0.12100
C5120       C  0.62066969  0.67363471  0.91877813     0.02600
C5121       C  0.60202292  0.66407300  0.94586252    -0.11500
H5122       H  0.59387177  0.72355078  0.95321797     0.08200
H5123       H  0.64362507  0.70897352  0.88313292     0.05700
H5124       H  0.59632131  0.64349000  0.95789208     0.05600
C5125       C  0.55426367  0.67666506  0.74470173     0.02600
C5126       C  0.57055098  0.70448370  0.76336435    -0.13500
C5127       C  0.55525287  0.71308086  0.78347309     0.00100
C5128       C  0.52362413  0.69371676  0.78522388    -0.12100
C5129       C  0.50720598  0.66514370  0.76798214     0.02600
C5130       C  0.52247210  0.65628708  0.74829658    -0.11500
H5131       H  0.59514809  0.72043288  0.76092481     0.08200
H5132       H  0.51196098  0.70091086  0.80012303     0.05700
H5133       H  0.00960795  0.63431859  0.73439893     0.05600
Zr5134     Zr  0.91183539  0.62537807  0.80696487     2.17500
O5135       O  0.91514333  0.66517606  0.77485640    -0.51800
O5136       O  0.88194998  0.59775597  0.75953702    -0.75000
O5137       O  0.95902876  0.65455079  0.77798455    -0.81800
O5138       O  0.84115112  0.60356639  0.84324128    -0.83600
O5139       O  0.96419878  0.61611311  0.77988705    -0.79200
O5140       O  0.88344546  0.64572003  0.82333697    -0.90800
O5141       O  0.86289023  0.54709757  0.76486135    -0.76800
O5142       O  0.92441426  0.58874308  0.80029637    -0.86300
O5143       O  0.86749833  0.57672232  0.82309174    -0.86000
O5144       O  0.95735523  0.64549624  0.83994139    -0.72700
O5145       O  0.90339588  0.63300658  0.86190509    -0.84900
Zr5146     Zr  0.92122482  0.57115315  0.90878557     2.26400
Zr5147     Zr  0.96809315  0.60697614  0.83543204     2.06300
Zr5148     Zr  0.86107986  0.58346554  0.87896096     2.10000
Zr5149     Zr  0.88070374  0.54130119  0.81704432     1.78800
O5150       O  0.85432349  0.61092575  0.92260234    -0.93700
O5151       O  0.90266120  0.52277230  0.77988066    -0.41500
O5152       O  0.87634538  0.54929023  0.87345853    -0.78100
O5153       O  0.92380530  0.55901265  0.85248524    -0.96800
O5154       O  0.96399759  0.61888321  0.89058900    -0.90100
O5155       O  0.90519459  0.60506446  0.91242893    -0.92900
C5156       C  0.86589460  0.56951106  0.74936694     1.00800
C5157       C  0.85594136  0.63112080  0.83303229     1.13700
C5158       C  0.97483882  0.64379934  0.77303106     1.04500
O5159       O  0.00479201  0.60346255  0.80441886    -0.95100
O5160       O  0.97827947  0.57050624  0.85399248    -0.90800
O5161       O  0.95006999  0.54788020  0.89827714    -0.84000
C5162       C  0.96868166  0.55093444  0.87640067     1.11200
O5163       O  0.97538777  0.70547862  0.87334462    -0.97100
Zr5164     Zr  0.94830405  0.65338890  0.89412871     1.88900
O5165       O  0.93689184  0.60368516  0.96069855    -0.73700
O5166       O  0.51906029  0.65313944  0.85105611    -0.53000
O5167       O  0.00081722  0.68132920  0.91464286    -0.97700
O5168       O  0.92910704  0.68337170  0.91310696    -0.54900
O5169       O  0.94760466  0.65112198  0.95080972    -0.74200
C5170       C  0.94337366  0.63071190  0.96987779     0.98100
O5171       O  0.92656986  0.54663527  0.95474805    -0.63100
O5172       O  0.80529996  0.55200166  0.88124389    -0.57900
O5173       O  0.87328550  0.53020368  0.92860305    -0.94500
O5174       O  0.83719271  0.53634864  0.90995826    -0.93000
O5175       O  0.82549868  0.50312920  0.81998505    -0.93300
O5176       O  0.86460610  0.98821019  0.82484794    -0.92100
C5177       C  0.84570218  0.52160306  0.92548852     1.16900
H5178       H  0.84913710  0.56978489  0.81073227     0.32900
H5179       H  0.92418926  0.54110612  0.84924738     0.43700
H5180       H  0.89796052  0.60587611  0.93340794     0.37300
H5181       H  0.97447732  0.66538889  0.83320177     0.33700
H5182       H  0.90679764  0.53460054  0.76019672     0.25500
H5183       H  0.53088146  0.65960688  0.83102187     0.31500
H5184       H  0.00251996  0.69569865  0.93187529     0.37400
H5185       H  0.81994152  0.50766275  0.84106011     0.31800
H5186       H  0.79991476  0.56688267  0.88552731     0.30700
H5187       H  0.84701507  0.62208325  0.91178613     0.32400
H5188       H  0.94246408  0.69614332  0.93185259     0.31400
H5189       H  0.86793958  0.98764458  0.84819853     0.35400
H5190       H  0.91843021  0.02493248  0.94755023     0.28100
H5191       H  0.91896524  0.66129526  0.75252063     0.32300
H5192       H  0.98482718  0.71995718  0.89239145     0.35200
H5193       H  0.79798350  0.54402510  0.85884146     0.27800
H5194       H  0.94887101  0.55742206  0.95862708     0.40700
H5195       H  0.99219872  0.58651170  0.78806080     0.30700
H5196       H  0.92322780  0.53110804  0.78917485     0.38300
H5197       H  0.90906512  0.66795839  0.92255899     0.30200
H5198       H  0.51654996  0.66994134  0.85652328     0.30200
H5199       H  0.93431161  0.68503247  0.78217172     0.30500
C5200       C  0.53663462  0.81823543  0.92528710     0.02600
C5201       C  0.54795557  0.83639579  0.95463687    -0.13500
C5202       C  0.52996365  0.84357688  0.97249044     0.00100
C5203       C  0.00083346  0.83219656  0.95996272    -0.12100
C5204       C  0.99045072  0.81612141  0.93000733     0.02600
C5205       C  0.50772769  0.80839113  0.91349251    -0.11500
H5206       H  0.57129654  0.84625244  0.96255987     0.08200
H5207       H  0.98759190  0.83940187  0.97158571     0.05700
H5208       H  0.50061804  0.79811786  0.88926848     0.05600
Zr5209     Zr  0.70126019  0.89534232  0.83734330     2.17500
O5210       O  0.74311008  0.93967581  0.80954408    -0.51800
O5211       O  0.73910862  0.92713058  0.88191279    -0.75000
O5212       O  0.68646634  0.92877519  0.81179019    -0.81800
O5213       O  0.73148036  0.84346475  0.82981311    -0.83600
O5214       O  0.63604257  0.90841773  0.81962175    -0.79200
O5215       O  0.73755190  0.88687423  0.81113095    -0.90800
O5216       O  0.72115791  0.90316524  0.92941386    -0.76800
O5217       O  0.66920526  0.89292739  0.87892535    -0.86300
O5218       O  0.70130879  0.86407790  0.87821586    -0.86000
O5219       O  0.65113915  0.86833954  0.81246511    -0.72700
O5220       O  0.68257489  0.84449368  0.81433400    -0.84900
Zr5221     Zr  0.59816538  0.78729462  0.87299147     2.26400
Zr5222     Zr  0.61892951  0.86630752  0.85417089     2.06300
Zr5223     Zr  0.68145140  0.81352670  0.85641932     2.10000
Zr5224     Zr  0.66938150  0.86172940  0.91956896     1.78800
O5225       O  0.68429544  0.77846769  0.81953602    -0.93700
O5226       O  0.66695452  0.90055696  0.95003891    -0.41500
O5227       O  0.64837560  0.81085846  0.89728791    -0.78100
O5228       O  0.61986597  0.83792567  0.89728011    -0.96800
O5229       O  0.59810003  0.81589233  0.82989510    -0.90100
O5230       O  0.63163933  0.78885694  0.83320463    -0.92900
C5231       C  0.74234818  0.92377904  0.91208267     1.00800
C5232       C  0.74610314  0.86847639  0.81362137     1.13700
C5233       C  0.66178686  0.92808123  0.80720007     1.04500
O5234       O  0.62472437  0.90953669  0.88500194    -0.95100
O5235       O  0.57469775  0.84448698  0.88751874    -0.90800
O5236       O  0.56138061  0.79641240  0.89953071    -0.84000
C5237       C  0.55828037  0.81908616  0.90223707     1.11200
O5238       O  0.65323509  0.84607017  0.74091844    -0.97100
Zr5239     Zr  0.63250006  0.81854671  0.79076885     1.88900
O5240       O  0.56854354  0.74742298  0.82937047    -0.73700
O5241       O  0.57425998  0.85380374  0.82296537    -0.53000
O5242       O  0.59378515  0.81861797  0.75973100    -0.97700
O5243       O  0.65483327  0.79825332  0.75661155    -0.54900
O5244       O  0.59331233  0.76522138  0.78213815    -0.74200
C5245       C  0.57285742  0.74386729  0.79946099     0.98100
O5246       O  0.55587740  0.74201370  0.89891553    -0.63100
O5247       O  0.71631505  0.81585724  0.89631021    -0.57900
O5248       O  0.60873191  0.75523528  0.90216584    -0.94500
O5249       O  0.65230949  0.76285973  0.88262472    -0.93000
O5250       O  0.68931482  0.84166960  0.95593980    -0.93300
O5251       O  0.64079998  0.84165706  0.96898023    -0.92100
C5252       C  0.62759445  0.74769929  0.89922036     1.16900
H5253       H  0.72173882  0.87173077  0.88550563     0.32900
H5254       H  0.61013922  0.83842266  0.91651727     0.43700
H5255       H  0.62558088  0.76837615  0.82627020     0.37300
H5256       H  0.65059478  0.87741616  0.79298052     0.33700
H5257       H  0.67791680  0.90385590  0.97069132     0.25500
H5258       H  0.57283314  0.87148135  0.82752881     0.31500
H5259       H  0.58515339  0.80078793  0.74407534     0.37400
H5260       H  0.70782967  0.84565533  0.94543104     0.31800
H5261       H  0.71928192  0.79978237  0.88872802     0.30700
H5262       H  0.69785465  0.77427194  0.83075061     0.32400
H5263       H  0.63902315  0.78496997  0.73975953     0.31400
H5264       H  0.62479813  0.81943237  0.96372066     0.35400
H5265       H  0.55554252  0.74903851  0.92121318     0.28100
H5266       H  0.74522657  0.95818201  0.81942839     0.32300
H5267       H  0.64032676  0.83096089  0.72319467     0.35200
H5268       H  0.73634788  0.83577377  0.89311007     0.27800
H5269       H  0.53727836  0.73783134  0.88809148     0.40700
H5270       H  0.62236858  0.90353713  0.90773460     0.30700
H5271       H  0.68058831  0.92013643  0.93877274     0.38300
H5272       H  0.65538415  0.78341974  0.77006708     0.30200
H5273       H  0.58048925  0.85590379  0.80022129     0.30200
H5274       H  0.73532295  0.93770204  0.78729520     0.30500
Zr5275     Zr  0.91118526  0.87590272  0.80295520     2.17500
O5276       O  0.92793001  0.91423974  0.76174426    -0.51800
O5277       O  0.86520653  0.87547178  0.78945439    -0.75000
O5278       O  0.92736819  0.86120726  0.75250061    -0.81800
O5279       O  0.93198005  0.92991750  0.87959321    -0.83600
O5280       O  0.89110450  0.81111950  0.75351003    -0.79200
O5281       O  0.94312791  0.93000537  0.82655904    -0.90800
O5282       O  0.82406693  0.83932760  0.81770695    -0.76800
O5283       O  0.87150368  0.82119160  0.79971076    -0.86300
O5284       O  0.87915141  0.86477332  0.84849028    -0.86000
O5285       O  0.93676200  0.84974649  0.80733414    -0.72700
O5286       O  0.94174785  0.88967428  0.85175666    -0.84900
Zr5287     Zr  0.89533460  0.79730056  0.89480736     2.26400
Zr5288     Zr  0.89630391  0.79500385  0.80462426     2.06300
Zr5289     Zr  0.90901606  0.87714405  0.89673741     2.10000
Zr5290     Zr  0.83945681  0.81054531  0.84442289     1.78800
O5291       O  0.95045000  0.90992864  0.93587916    -0.93700
O5292       O  0.80423179  0.77425917  0.80190835    -0.41500
O5293       O  0.87001745  0.82284589  0.89187298    -0.78100
O5294       O  0.86221993  0.78279433  0.84802158    -0.96800
O5295       O  0.92859824  0.80919311  0.85118025    -0.90100
O5296       O  0.93431120  0.85184714  0.90053724    -0.92900
C5297       C  0.83720775  0.86201483  0.79886567     1.00800
C5298       C  0.94520840  0.94400955  0.85375111     1.13700
C5299       C  0.91563994  0.83315956  0.74156363     1.04500
O5300       O  0.86605317  0.75290907  0.76477688    -0.95100
O5301       O  0.87349782  0.74266400  0.82101509    -0.90800
O5302       O  0.87079173  0.74368675  0.87552991    -0.84000
C5303       C  0.86566578  0.72955699  0.84807521     1.11200
O5304       O  0.50477226  0.90971912  0.82658895    -0.97100
Zr5305     Zr  0.96659232  0.86401286  0.85553963     1.88900
O5306       O  0.94098286  0.80406903  0.91830607    -0.73700
O5307       O  0.93750809  0.79133872  0.78621817    -0.53000
O5308       O  0.99763255  0.85302914  0.82325315    -0.97700
O5309       O  0.00412498  0.90544511  0.89319048    -0.54900
O5310       O  0.98187527  0.83894707  0.88902785    -0.74200
C5311       C  0.96935502  0.81926326  0.91109747     0.98100
O5312       O  0.87866357  0.76097096  0.93832637    -0.63100
O5313       O  0.87891854  0.89472341  0.91880375    -0.57900
O5314       O  0.87297397  0.80211749  0.94262658    -0.94500
O5315       O  0.88305912  0.85022613  0.94577212    -0.93000
O5316       O  0.81147891  0.81891474  0.88462767    -0.93300
O5317       O  0.79516726  0.76299997  0.86528846    -0.92100
C5318       C  0.87142836  0.82303597  0.95673326     1.16900
H5319       H  0.87153489  0.87750086  0.84966987     0.32900
H5320       H  0.84471793  0.76142400  0.84718628     0.43700
H5321       H  0.94522167  0.85699180  0.92092476     0.37300
H5322       H  0.95211939  0.85500113  0.79155058     0.33700
H5323       H  0.78570172  0.77415093  0.80407618     0.25500
H5324       H  0.92824252  0.77553569  0.76826573     0.31500
H5325       H  0.01661596  0.86158211  0.83628857     0.37400
H5326       H  0.79353736  0.81535828  0.87279266     0.31800
H5327       H  0.89290875  0.91168130  0.93460647     0.30700
H5328       H  0.94104255  0.90262630  0.95713760     0.32400
H5329       H  0.52200837  0.90689297  0.89128450     0.31400
H5330       H  0.80348510  0.75791282  0.88334124     0.35400
H5331       H  0.85670395  0.74437901  0.93390466     0.28100
H5332       H  0.91482964  0.90250016  0.74248905     0.32300
H5333       H  0.52484397  0.91418005  0.83300465     0.35200
H5334       H  0.87628758  0.90521328  0.90112045     0.27800
H5335       H  0.88923239  0.75064114  0.93525943     0.40700
H5336       H  0.84530418  0.74835532  0.76577431     0.30700
H5337       H  0.81327308  0.78476182  0.78151275     0.38300
H5338       H  0.99687161  0.89766349  0.91497977     0.30200
H5339       H  0.95238992  0.81109908  0.77587597     0.30200
H5340       H  0.94867799  0.92045297  0.75592027     0.30500
C5341       C  0.80964052  0.90245316  0.75135686     0.02600
C5342       C  0.82750135  0.89255423  0.76221051    -0.13500
C5343       C  0.81877992  0.87371853  0.78876919     0.00100
C5344       C  0.79197040  0.86563387  0.80546288    -0.12100
C5345       C  0.77444226  0.87664393  0.79605901     0.02600
C5346       C  0.78377685  0.89518144  0.76890955    -0.11500
H5347       H  0.84714984  0.89773891  0.74863509     0.08200
H5348       H  0.78496458  0.85113880  0.82611874     0.05700
H5349       H  0.76999265  0.90278896  0.76045160     0.05600
C5350       C  0.80925388  0.94572108  0.96733077     0.02600
C5351       C  0.83012683  0.97694474  0.95998928    -0.13500
C5352       C  0.82227438  0.99074189  0.93701486     0.00100
C5353       C  0.79354847  0.97340124  0.92141397    -0.12100
C5354       C  0.77269014  0.94247840  0.92816728     0.02600
C5355       C  0.78062538  0.92869068  0.95088332    -0.11500
H5356       H  0.85227293  0.49074819  0.97260380     0.08200
H5357       H  0.78763065  0.98366480  0.90337886     0.05700
H5358       H  0.76410961  0.90447286  0.95603180     0.05600
C5359       C  0.66130637  0.95042334  0.78643904     0.02600
C5360       C  0.63906261  0.93992723  0.76086639    -0.13500
C5361       C  0.63334144  0.96035625  0.74628078     0.00100
C5362       C  0.65071619  0.99138002  0.75759318    -0.12100
C5363       C  0.67239495  0.50158112  0.78279718     0.02600
C5364       C  0.67785206  0.98148469  0.79690059    -0.11500
H5365       H  0.62631998  0.91589922  0.75225305     0.08200
H5366       H  0.64696637  0.50721797  0.74668744     0.05700
H5367       H  0.69340559  0.98939894  0.81755888     0.05600
C5368       C  0.84168360  0.64767112  0.83547611     0.02600
C5369       C  0.81003474  0.63113993  0.83923669    -0.13500
C5370       C  0.79712001  0.64689121  0.84778813     0.00100
C5371       C  0.81569965  0.67922420  0.85242042    -0.12100
C5372       C  0.84713770  0.69584933  0.84702254     0.02600
C5373       C  0.86009651  0.68018215  0.83819085    -0.11500
H5374       H  0.79553174  0.60600950  0.83647397     0.08200
H5375       H  0.80551255  0.69151349  0.85857865     0.05700
H5376       H  0.88461620  0.69329986  0.83481476     0.05600
loop_ 
_geom_bond_atom_site_label_1 
_geom_bond_atom_site_label_2 
_geom_bond_distance 
_geom_bond_site_symmetry_2 
_ccdc_geom_bond_type 
C1           C71   1.495       .  S
C1         C1346   1.401       .  A
C1         C2694   1.423   1_455  A
C2            C3   1.395       .  A
C2         C1345   1.402   1_545  A
C2            H7   1.086       .  S
C3          C286   1.473       .  S
C3         C2692   1.403   1_455  A
C4         C2691   1.402       .  A
C4         C1349   1.410   1_545  A
C4            H8   1.084       .  S
C5          C202   1.498       .  S
C5            C6   1.428       .  A
C5         C1348   1.410       .  A
C6         C2689   1.423       .  A
C6            H9   1.083       .  S
C10          C52   1.471       .  S
C10          C11   1.408       .  A
C10          C15   1.397       .  A
C11          C12   1.403       .  A
C11          H16   1.084       .  S
C12         C221   1.466       .  S
C12          C13   1.401       .  A
C13          C14   1.399       .  A
C13          H17   1.085       .  S
C14         C305   1.459       .  S
C14          C15   1.398       .  A
C15          H18   1.085       .  S
C19         C614   1.477       .  S
C19         C692   1.397       .  A
C19         C696   1.414       .  A
C20          C21   1.395       .  A
C20         C691   1.396   1_554  A
C20         H697   1.084   1_554  S
C21         C200   1.467       .  S
C21          C22   1.409       .  A
C22          C23   1.394       .  A
C22          H26   1.084       .  S
C23         C155   1.469       .  S
C23          C24   1.404       .  A
C24         C691   1.414   1_554  A
C24         H699   1.084   1_554  S
H25         C692   1.084       .  S
H27         C696   1.084       .  S
Zr28         O29   2.440       .  S
Zr28         O30   2.464       .  S
Zr28         O31   2.428       .  S
Zr28         O34   2.491       .  S
Zr28         O36   2.405       .  S
Zr28         O37   2.402       .  S
Zr28         O38   2.442       .  S
Zr28         O39   2.407       .  S
O29          H85   0.990   1_554  S
O29          H93   0.990       .  S
O30          C50   1.287       .  A
O31          C52   1.283       .  A
O32         Zr42   2.404       .  S
O32          C51   1.268       .  A
O33         Zr41   2.443       .  S
O33          C52   1.283       .  A
O34          C51   1.289       .  A
O35         Zr43   2.459       .  S
O35          C50   1.289       .  A
O36         Zr41   2.404       .  S
O36         Zr43   2.362       .  S
O37         Zr42   2.422       .  S
O37         Zr43   2.359       .  S
O37          H72   0.966       .  S
O38         Zr41   2.419       .  S
O38         Zr58   2.372       .  S
O38          H75   0.964       .  S
O39         Zr42   2.383       .  S
O39         Zr58   2.374       .  S
Zr40       O2753   2.447       .  S
Zr40         O59   2.590       .  S
Zr40         O67   2.513       .  S
Zr40         O55   2.424       .  S
Zr40         O47   2.442       .  S
Zr40         O48   2.361       .  S
Zr40         O49   2.387       .  S
Zr40         O46   2.335       .  S
Zr41         O60   2.435       .  S
Zr41         O53   2.435       .  S
Zr41         O54   2.488       .  S
Zr41         O47   2.399       .  S
Zr41         O48   2.369       .  S
Zr42         O66   2.442       .  S
Zr42       O1388   2.438       .  S
Zr42         O68   2.414       .  S
Zr42         O49   2.405       .  S
Zr42         O46   2.274       .  S
Zr43         O69   2.438       .  S
Zr43       O2758   2.436   1_455  S
Zr43       O2733   2.442   1_455  S
Zr43         O47   2.381       .  S
Zr43         O46   2.329       .  S
O44       Zr1386   2.438   1_545  S
O44          H81   0.990       .  S
O45       Zr2731   2.442       .  S
O45          H76   0.990       .  S
O45        H2778   0.990       .  S
O47          H73   0.961       .  S
O48         Zr58   2.388       .  S
O49         Zr58   2.400       .  S
O49          H74   0.965       .  S
C50        C1170   1.509   1_554  S
C51        C1442   1.484       .  S
O53          H89   0.990       .  S
O54          C56   1.297       .  A
O55          C56   1.284       .  A
C56        C2795   1.491   1_455  S
O57         Zr58   2.438       .  S
O57          H86   0.990       .  S
Zr58         O61   2.440       .  S
Zr58       O1406   2.442       .  S
Zr58         O63   2.375       .  S
O59          C64   1.314       .  A
O60          H77   0.990       .  S
O60          H92   0.990       .  S
O61          H78   0.991       .  S
O62       Zr1402   2.442   1_545  S
O62          H82   0.990       .  S
O62          H91   0.990       .  S
O63          C64   1.267       .  A
C64         C657   1.503       .  S
O65       Zr2728   2.446       .  S
O65          H84   0.990       .  S
O65          H88   0.990       .  S
O66          H80   0.991       .  S
O66          H87   0.990       .  S
O67          C71   1.297       .  A
O68          C71   1.282       .  A
O69        H2767   0.991   1_455  S
O70       Zr2731   2.436       .  S
O70          H83   0.990       .  S
H79        O2757   0.991       .  S
H90        O2733   0.990       .  S
C94         C370   1.487       .  S
C94          C95   1.398       .  A
C94          C99   1.403       .  A
C95         C768   1.411       .  A
C95         H100   1.083       .  S
C96         C140   1.495       .  S
C96          C97   1.413       .  A
C96         C767   1.411       .  A
C97          C98   1.416       .  A
C97         H101   1.082       .  S
C98        C1395   1.485   1_545  S
C98         C771   1.411   1_554  A
C99         C770   1.411       .  A
C99         H102   1.084       .  S
C103        C595   1.513       .  S
C103        C104   1.416       .  A
C103        C108   1.407       .  A
C104        C105   1.417       .  A
C104        H109   1.084       .  S
C105        C135   1.485       .  S
C105        C106   1.400       .  A
C106        C107   1.413       .  A
C106        H110   1.084       .  S
C107       C2744   1.491       .  S
C107        C108   1.422       .  A
C108        H111   1.083       .  S
Zr112       O113   2.438       .  S
Zr112       O114   2.483       .  S
Zr112       O115   2.468       .  S
Zr112       O118   2.546       .  S
Zr112       O120   2.403       .  S
Zr112       O121   2.391       .  S
Zr112       O122   2.429       .  S
Zr112       O123   2.378       .  S
O113        H169   0.990       .  S
O113        H177   0.991       .  S
O114        C134   1.295       .  A
O115        C136   1.291       .  A
O116       Zr126   2.370       .  S
O116        C135   1.273       .  A
O117       Zr125   2.423       .  S
O117        C136   1.286       .  A
O118        C135   1.306       .  A
O119       Zr127   2.399       .  S
O119        C134   1.275       .  A
O120       Zr125   2.394       .  S
O120       Zr127   2.378       .  S
O121       Zr126   2.394       .  S
O121       Zr127   2.387       .  S
O121        H156   0.966       .  S
O122       Zr125   2.422       .  S
O122       Zr142   2.378       .  S
O122        H159   0.963       .  S
O123       Zr126   2.368       .  S
O123       Zr142   2.359       .  S
Zr124       O149   2.443       .  S
Zr124       O143   2.492       .  S
Zr124       O151   2.500       .  S
Zr124       O139   2.419       .  S
Zr124       O130   2.400       .  S
Zr124       O131   2.430       .  S
Zr124       O132   2.367       .  S
Zr124       O133   2.380       .  S
Zr125       O144   2.436       .  S
Zr125       O137   2.437       .  S
Zr125       O138   2.480       .  S
Zr125       O131   2.397       .  S
Zr125       O132   2.374       .  S
Zr126       O128   2.437       .  S
Zr126       O150   2.438       .  S
Zr126       O152   2.369       .  S
Zr126       O130   2.374       .  S
Zr126       O133   2.404       .  S
Zr127       O153   2.437       .  S
Zr127       O154   2.436   1_554  S
Zr127       O129   2.439       .  S
Zr127       O130   2.387       .  S
Zr127       O131   2.385       .  S
O128        H165   0.990       .  S
O129        H160   0.991   1_554  S
O129        H174   0.990       .  S
O131        H157   0.964       .  S
O132       Zr142   2.375       .  S
O133       Zr142   2.392       .  S
O133        H158   0.965       .  S
C134        C328   1.489       .  S
C136        C244   1.482       .  S
O137        H173   0.990       .  S
O138        C140   1.293       .  A
O139        C140   1.285       .  A
O141       Zr142   2.439       .  S
O141        H170   0.990       .  S
Zr142       O145   2.442       .  S
Zr142       O146   2.441       .  S
Zr142       O147   2.370       .  S
O143        C148   1.296       .  A
O144        H161   0.990       .  S
O144        H176   0.990       .  S
O145        H162   0.990       .  S
O146        H166   0.990       .  S
O146        H175   0.990       .  S
O147        C148   1.272       .  A
C148        C255   1.484       .  S
O149        H168   0.990       .  S
O149        H172   0.990       .  S
O150        H164   0.990       .  S
O150        H171   0.990       .  S
O151        C155   1.294       .  A
O152        C155   1.272       .  A
O153        H163   0.990       .  S
O154        H167   0.990       .  S
Zr178       O179   2.439       .  S
Zr178       O180   2.446       .  S
Zr178       O181   2.503       .  S
Zr178       O184   2.509       .  S
Zr178       O186   2.397       .  S
Zr178       O187   2.404       .  S
Zr178       O188   2.414       .  S
Zr178       O189   2.401       .  S
O179        H235   0.990       .  S
O179        H243   0.990       .  S
O180        C200   1.287       .  A
O181        C202   1.298       .  A
O182       Zr192   2.398       .  S
O182        C201   1.270   1_554  A
O183       Zr191   2.442       .  S
O183        C202   1.285       .  A
O184        C201   1.296   1_554  A
O185       Zr193   2.369       .  S
O185        C200   1.272       .  A
O186       Zr191   2.398       .  S
O186       Zr193   2.388       .  S
O187       Zr192   2.389       .  S
O187       Zr193   2.368       .  S
O187        H222   0.966       .  S
O188       Zr191   2.410       .  S
O188       Zr208   2.396       .  S
O188        H225   0.965       .  S
O189       Zr192   2.395       .  S
O189       Zr208   2.369       .  S
Zr190       O215   2.443       .  S
Zr190       O209   2.440       .  S
Zr190       O217   2.456       .  S
Zr190       O205   2.422       .  S
Zr190       O196   2.402       .  S
Zr190       O197   2.416       .  S
Zr190       O198   2.386       .  S
Zr190       O199   2.389       .  S
Zr191       O210   2.435       .  S
Zr191       O203   2.434       .  S
Zr191       O204   2.459       .  S
Zr191       O197   2.400       .  S
Zr191       O198   2.389       .  S
Zr192       O194   2.436       .  S
Zr192       O216   2.435       .  S
Zr192       O218   2.405       .  S
Zr192       O196   2.388       .  S
Zr192       O199   2.379       .  S
Zr193       O219   2.438       .  S
Zr193       O220   2.436       .  S
Zr193       O195   2.437       .  S
Zr193       O196   2.379       .  S
Zr193       O197   2.363       .  S
O194        H231   0.990       .  S
O195        H226   0.990       .  S
O195        H240   0.990       .  S
O197        H223   0.963       .  S
O198       Zr208   2.384       .  S
O199       Zr208   2.394       .  S
O199        H224   0.966       .  S
C201       C1318   1.496       .  S
O203        H239   0.990       .  S
O204        C206   1.291       .  A
O205        C206   1.284       .  A
C206        C637   1.481       .  S
O207      Zr1552   2.441   1_545  S
O207        H236   0.990       .  S
Zr208      O1551   2.440       .  S
Zr208      O1555   2.439       .  S
Zr208      O1556   2.439       .  S
Zr208       O213   2.381       .  S
O209        C214   1.278       .  A
O210        H227   0.990       .  S
O210        H242   0.990       .  S
O211      Zr1552   2.439   1_545  S
O211        H228   0.990       .  S
O212      Zr1552   2.439   1_545  S
O212        H232   0.990       .  S
O212       H1585   0.990       .  S
O213        C214   1.267       .  A
C214       C1590   1.460       .  S
O215        H234   0.990       .  S
O215        H238   0.990       .  S
O216        H230   0.990       .  S
O216        H237   0.990       .  S
O217        C221   1.287       .  A
O218        C221   1.279       .  A
O219        H229   0.990       .  S
O220        H233   0.990       .  S
H241       O1556   0.990       .  S
C244        C245   1.396       .  A
C244        C249   1.407       .  A
C245        C246   1.395       .  A
C245        H250   1.085       .  S
C246       C1558   1.460   1_545  S
C246        C247   1.398       .  A
C247        C248   1.402       .  A
C247        H251   1.083       .  S
C248        C452   1.485       .  S
C248        C249   1.422       .  A
C249        H252   1.083       .  S
C253        C389   1.486       .  S
C253        C254   1.411       .  A
C253        C258   1.396       .  A
C254        C255   1.413       .  A
C254        H259   1.083       .  S
C255        C256   1.390       .  A
C256        C257   1.405       .  A
C256        H260   1.084       .  S
C257        C284   1.460       .  S
C257        C258   1.403       .  A
C258        H261   1.084       .  S
Zr262       O263   2.443       .  S
Zr262       O264   2.412       .  S
Zr262       O265   2.433       .  S
Zr262       O268   2.449       .  S
Zr262       O270   2.387       .  S
Zr262       O271   2.399       .  S
Zr262       O272   2.407       .  S
Zr262       O273   2.382       .  S
O263        H319   0.990       .  S
O263       H3015   0.991       .  S
O264        C284   1.279       .  A
O265        C286   1.283       .  A
O266       Zr276   2.425       .  S
O266        C285   1.279       .  A
O267       Zr275   2.455       .  S
O267        C286   1.288       .  A
O268        C285   1.287       .  A
O269       Zr277   2.390       .  S
O269        C284   1.274       .  A
O270       Zr275   2.396       .  S
O270       Zr277   2.382       .  S
O271       Zr276   2.387       .  S
O271       Zr277   2.369       .  S
O271        H306   0.966       .  S
O272       Zr275   2.415       .  S
O272       Zr292   2.390       .  S
O272        H309   0.965       .  S
O273       Zr276   2.389       .  S
O273       Zr292   2.358       .  S
Zr274       O299   2.445       .  S
Zr274       O293   2.429       .  S
Zr274       O301   2.413       .  S
Zr274       O289   2.411       .  S
Zr274       O280   2.409       .  S
Zr274       O281   2.402       .  S
Zr274       O282   2.382       .  S
Zr274       O283   2.388       .  S
Zr275       O294   2.433       .  S
Zr275       O287   2.434       .  S
Zr275       O288   2.482       .  S
Zr275       O281   2.403       .  S
Zr275       O282   2.382       .  S
Zr276       O278   2.435       .  S
Zr276       O300   2.438       .  S
Zr276       O302   2.427       .  S
Zr276       O280   2.389       .  S
Zr276       O283   2.385       .  S
Zr277       O303   2.437       .  S
Zr277       O304   2.435       .  S
Zr277       O279   2.437       .  S
Zr277       O280   2.391       .  S
Zr277       O281   2.359       .  S
O278        H315   0.990       .  S
O279        H310   0.990       .  S
O279        H324   0.990       .  S
O281        H307   0.963       .  S
O282       Zr292   2.390       .  S
O283       Zr292   2.386       .  S
O283        H308   0.966       .  S
C285        C421   1.476       .  S
O287        H323   0.990       .  S
O288        C290   1.296   1_554  A
O289        C290   1.282   1_554  A
C290       C1084   1.485       .  S
O291      Zr2980   2.435       .  S
O291        H320   0.990       .  S
Zr292      O2979   2.435   1_455  S
Zr292      O2983   2.436   1_455  S
Zr292      O2984   2.437   1_455  S
Zr292       O297   2.386       .  S
O293        C298   1.278       .  A
O294        H311   0.990       .  S
O294        H326   0.990   1_455  S
O295      Zr2980   2.435       .  S
O295        H312   0.990       .  S
O296      Zr2980   2.438       .  S
O296        H316   0.990       .  S
O296       H3013   0.991       .  S
O297        C298   1.263       .  A
C298       C3018   1.457   1_455  S
O299        H318   0.991       .  S
O299        H322   0.991       .  S
O300        H314   0.990       .  S
O300        H321   0.990       .  S
O301        C305   1.280       .  A
O302        C305   1.282       .  A
O303        H313   0.990       .  S
O304        H317   0.990       .  S
H325       O2984   0.991   1_455  S
H327       O2951   0.991       .  S
C328        C329   1.395       .  A
C328        C333   1.421       .  A
C329        C330   1.399       .  A
C329        H334   1.084       .  S
C330       C2986   1.457       .  S
C330        C331   1.402       .  A
C331       C1004   1.394       .  A
C331       H1007   1.085       .  S
C332        C466   1.475       .  S
C332       C1003   1.394       .  A
C332       C1005   1.418       .  A
C333       C1004   1.418       .  A
C333       H1008   1.084       .  S
H335       C1003   1.085       .  S
H336       C1005   1.084       .  S
C337        C458   1.483       .  S
C337       C1682   1.418   1_545  A
C337       C3030   1.396       .  A
C338        C339   1.422       .  A
C338       C1681   1.418       .  A
C338        H343   1.083       .  S
C339        C594   1.491       .  S
C339       C4372   1.409       .  A
C340        C341   1.403   1_665  A
C340       C4371   1.409       .  A
C340       H1688   1.084   1_655  S
C341        C369   1.464       .  S
C341        C342   1.395       .  A
C342       C3025   1.395   1_455  A
C342        H345   1.086       .  S
H344       C1684   1.084   1_455  S
Zr346       O347   2.444       .  S
Zr346       O348   2.464       .  S
Zr346       O349   2.466       .  S
Zr346       O352   2.428       .  S
Zr346       O354   2.390       .  S
Zr346       O355   2.397       .  S
Zr346       O356   2.431       .  S
Zr346       O357   2.415       .  S
O347        H403   0.990       .  S
O347        H411   0.991       .  S
O348        C368   1.289       .  A
O349        C370   1.284       .  A
O350       Zr360   2.438       .  S
O350        C369   1.285       .  A
O351       Zr359   2.414       .  S
O351        C370   1.274       .  A
O352        C369   1.284       .  A
O353       Zr361   2.380       .  S
O353        C368   1.274       .  A
O354       Zr359   2.400       .  S
O354       Zr361   2.389       .  S
O355       Zr360   2.396       .  S
O355       Zr361   2.380       .  S
O355        H390   0.966       .  S
O356       Zr359   2.396       .  S
O356       Zr376   2.383       .  S
O356        H393   0.963       .  S
O357       Zr360   2.407       .  S
O357       Zr376   2.388       .  S
Zr358       O383   2.451       .  S
Zr358       O377   2.410       .  S
Zr358       O385   2.396       .  S
Zr358       O373   2.418       .  S
Zr358       O364   2.394       .  S
Zr358       O365   2.398       .  S
Zr358       O366   2.390       .  S
Zr358       O367   2.403       .  S
Zr359       O378   2.434       .  S
Zr359       O371   2.434       .  S
Zr359       O372   2.414       .  S
Zr359       O365   2.398       .  S
Zr359       O366   2.383       .  S
Zr360       O362   2.435       .  S
Zr360       O384   2.439       .  S
Zr360       O386   2.464       .  S
Zr360       O364   2.390       .  S
Zr360       O367   2.382       .  S
Zr361       O387   2.437       .  S
Zr361       O388   2.437       .  S
Zr361       O363   2.438       .  S
Zr361       O364   2.376       .  S
Zr361       O365   2.377       .  S
O362        H399   0.990       .  S
O363        H394   0.990       .  S
O363        H408   0.990       .  S
O365        H391   0.966       .  S
O366       Zr376   2.385       .  S
O367       Zr376   2.374       .  S
O367        H392   0.966       .  S
C368        C416   1.481       .  S
O371        H407   0.990       .  S
O372        C374   1.280       .  A
O373        C374   1.281       .  A
C374        C666   1.450       .  S
O375      Zr1720   2.439       .  S
O375        H404   0.990       .  S
Zr376       O379   2.439   1_545  S
Zr376      O1719   2.440   1_545  S
Zr376      O1724   2.440   1_545  S
Zr376       O381   2.411       .  S
O377        C382   1.272       .  A
O378        H395   0.990       .  S
O378        H410   0.990       .  S
O379       H1740   0.990       .  S
O380      Zr1720   2.438       .  S
O380        H400   0.990       .  S
O380       H1753   0.989       .  S
O381        C382   1.270       .  A
C382        C659   1.460       .  S
O383        H402   0.990       .  S
O383        H406   0.990       .  S
O384        H398   0.990       .  S
O384        H405   0.990       .  S
O385        C389   1.278       .  A
O386        C389   1.293       .  A
O387        H397   0.990       .  S
O388        H401   0.990       .  S
H396       O1723   0.990       .  S
H409       O1724   0.990       .  S
C412        C962   1.485       .  S
C412        C413   1.414       .  A
C412        C417   1.404       .  A
C413        C414   1.410       .  A
C413        H418   1.084       .  S
C414        C548   1.493       .  S
C414        C415   1.399       .  A
C415        C416   1.413       .  A
C415        H419   1.083       .  S
C416        C417   1.403       .  A
C417        H420   1.084       .  S
C421        C422   1.402       .  A
C421        C426   1.403       .  A
C422        C423   1.405       .  A
C422        H427   1.085       .  S
C423        C541   1.459       .  S
C423        C424   1.385       .  A
C424        C425   1.399       .  A
C424        H428   1.083       .  S
C425       C3142   1.452   1_455  S
C425        C426   1.402       .  A
C426       H3117   1.084       .  S
H429       C3114   1.084       .  S
Zr430       O431   2.443       .  S
Zr430       O432   2.386       .  S
Zr430       O433   2.412       .  S
Zr430       O436   2.393       .  S
Zr430       O438   2.395       .  S
Zr430       O439   2.402       .  S
Zr430       O440   2.417       .  S
Zr430       O441   2.395       .  S
O431        H487   0.990       .  S
O431        H495   0.991       .  S
O432        C452   1.273       .  A
O433        C454   1.272       .  A
O434       Zr444   2.421       .  S
O434        C453   1.278       .  A
O435       Zr443   2.405       .  S
O435        C454   1.267       .  A
O436        C453   1.276       .  A
O437       Zr445   2.474       .  S
O437        C452   1.292       .  A
O438       Zr443   2.414       .  S
O438       Zr445   2.364       .  S
O439       Zr444   2.388       .  S
O439       Zr445   2.349       .  S
O439        H474   0.966       .  S
O440       Zr443   2.409       .  S
O440       Zr460   2.376       .  S
O440        H477   0.964       .  S
O441       Zr444   2.397       .  S
O441       Zr460   2.376       .  S
Zr442       O467   2.450       .  S
Zr442       O461   2.537       .  S
Zr442       O469   2.368       .  S
Zr442       O457   2.492       .  S
Zr442       O449   2.427       .  S
Zr442       O450   2.370       .  S
Zr442       O451   2.382       .  S
Zr442       O448   2.350       .  S
Zr443       O455   2.438       .  S
Zr443      O3150   2.446       .  S
Zr443       O456   2.424       .  S
Zr443       O449   2.394       .  S
Zr443       O450   2.403       .  S
Zr444       O446   2.439       .  S
Zr444       O468   2.442       .  S
Zr444       O470   2.445       .  S
Zr444       O451   2.357       .  S
Zr444       O448   2.281       .  S
Zr445       O471   2.436       .  S
Zr445       O447   2.443       .  S
Zr445      O1816   2.436   1_545  S
Zr445       O449   2.395       .  S
Zr445       O448   2.329       .  S
O446        H483   0.990       .  S
O447        H478   0.990       .  S
O447        H492   0.990       .  S
O449        H475   0.961       .  S
O450       Zr460   2.403       .  S
O451       Zr460   2.398       .  S
O451        H476   0.963       .  S
C453        C664   1.454       .  S
C454       C3113   1.453       .  S
O455        H491   0.990       .  S
O456        C458   1.283       .  A
O457        C458   1.291       .  A
O459       Zr460   2.441       .  S
O459        H488   0.990       .  S
Zr460       O463   2.434       .  S
Zr460       O464   2.441       .  S
Zr460       O465   2.357       .  S
O461        C466   1.302       .  A
O462      Zr3131   2.445   1_455  S
O462        H479   0.989       .  S
O462        H494   0.989       .  S
O463        H480   0.990       .  S
O464        H484   0.990       .  S
O464        H493   0.990       .  S
O465        C466   1.268       .  A
O467        H490   0.991       .  S
O467       H1830   0.991       .  S
O468        H482   0.991       .  S
O468        H489   0.990       .  S
O469        C473   1.271       .  A
O470        C473   1.289       .  A
O471        H481   0.990       .  S
O472      Zr1789   2.436       .  S
O472        H485   0.990       .  S
C473       C1992   1.459   1_545  S
H486       O1811   0.990       .  S
C496        C533   1.483       .  S
C496        C497   1.424       .  A
C496        C501   1.396       .  A
C497        C498   1.421       .  A
C497        H502   1.084       .  S
C498        C722   1.508       .  S
C498       C3187   1.407       .  A
C499        C500   1.402       .  A
C499       C3186   1.408       .  A
C499        H503   1.084       .  S
C500        C607   1.462       .  S
C500       C3189   1.401       .  A
C501       C3188   1.401   1_455  A
C501        H504   1.085       .  S
Zr505       O506   2.440       .  S
Zr505       O507   2.494       .  S
Zr505       O508   2.562       .  S
Zr505       O511   2.468       .  S
Zr505       O513   2.386       .  S
Zr505       O514   2.403       .  S
Zr505       O515   2.402       .  S
Zr505       O516   2.420       .  S
O506        H562   0.990       .  S
O506        H570   0.990       .  S
O507        C527   1.296       .  A
O508        C529   1.310       .  A
O509       Zr519   2.471       .  S
O509        C528   1.293       .  A
O510       Zr518   2.382       .  S
O510        C529   1.274       .  A
O511        C528   1.294       .  A
O512       Zr520   2.359       .  S
O512        C527   1.270       .  A
O513       Zr518   2.409       .  S
O513       Zr520   2.396       .  S
O514       Zr519   2.373       .  S
O514       Zr520   2.376       .  S
O514        H549   0.964       .  S
O515       Zr518   2.403       .  S
O515       Zr535   2.353       .  S
O515        H552   0.962       .  S
O516       Zr519   2.407       .  S
O516       Zr535   2.383       .  S
Zr517       O542   2.433       .  S
Zr517       O536   2.475       .  S
Zr517       O544   2.423       .  S
Zr517       O532   2.522       .  S
Zr517       O523   2.415       .  S
Zr517       O524   2.397       .  S
Zr517       O525   2.379       .  S
Zr517       O526   2.403       .  S
Zr518       O537   2.435       .  S
Zr518       O530   2.435       .  S
Zr518       O531   2.409       .  S
Zr518       O524   2.389       .  S
Zr518       O525   2.396       .  S
Zr519       O521   2.436       .  S
Zr519       O543   2.438       .  S
Zr519       O545   2.478       .  S
Zr519       O523   2.400       .  S
Zr519       O526   2.370       .  S
Zr520       O546   2.435       .  S
Zr520       O547   2.438       .  S
Zr520       O522   2.439       .  S
Zr520       O523   2.384       .  S
Zr520       O524   2.349       .  S
O521        H558   0.990       .  S
O522        H553   0.990       .  S
O522        H567   0.990       .  S
O524        H550   0.961       .  S
O525       Zr535   2.400       .  S
O526       Zr535   2.377       .  S
O526        H551   0.965       .  S
C527        C650   1.470       .  S
C528        C641   1.508       .  S
C529        C655   1.492       .  S
O530        H566   0.990       .  S
O531        C533   1.279       .  A
O532        C533   1.299       .  A
O534       Zr535   2.442       .  S
O534        H563   0.990       .  S
Zr535       O538   2.437       .  S
Zr535       O539   2.440       .  S
Zr535       O540   2.360       .  S
O536        C541   1.291       .  A
O537        H554   0.990       .  S
O537        H569   0.990       .  S
O538        H555   0.990       .  S
O539        H559   0.990       .  S
O539        H568   0.989       .  S
O540        C541   1.271       .  A
O542        H561   0.991       .  S
O542        H565   0.988       .  S
O543        H557   0.990       .  S
O543        H564   0.990       .  S
O544        C548   1.283       .  A
O545        C548   1.295       .  A
O546        H556   0.990       .  S
O547        H560   0.990       .  S
Zr571       O572   2.440       .  S
Zr571       O573   2.501       .  S
Zr571       O574   2.534       .  S
Zr571       O577   2.494       .  S
Zr571       O579   2.400       .  S
Zr571       O580   2.403       .  S
Zr571       O581   2.444       .  S
Zr571       O582   2.416       .  S
O572        H628   0.990       .  S
O572        H636   0.990       .  S
O573        C593   1.299       .  A
O574        C595   1.295       .  A
O575       Zr585   2.438       .  S
O575        C594   1.285       .  A
O576       Zr584   2.385       .  S
O576        C595   1.264       .  A
O577        C594   1.298       .  A
O578       Zr586   2.396       .  S
O578        C593   1.276       .  A
O579       Zr584   2.413       .  S
O579       Zr586   2.380       .  S
O580       Zr585   2.387       .  S
O580       Zr586   2.384       .  S
O580        H615   0.965       .  S
O581       Zr584   2.409       .  S
O581       Zr601   2.373       .  S
O581        H618   0.964       .  S
O582       Zr585   2.397       .  S
O582       Zr601   2.387       .  S
Zr583       O608   2.446       .  S
Zr583       O602   2.450       .  S
Zr583       O610   2.401       .  S
Zr583       O598   2.435       .  S
Zr583       O589   2.402       .  S
Zr583       O590   2.415       .  S
Zr583       O591   2.372       .  S
Zr583       O592   2.390       .  S
Zr584       O603   2.439       .  S
Zr584       O596   2.431       .  S
Zr584       O597   2.408       .  S
Zr584       O590   2.390       .  S
Zr584       O591   2.386       .  S
Zr585       O587   2.436       .  S
Zr585       O609   2.439       .  S
Zr585       O611   2.452       .  S
Zr585       O589   2.381       .  S
Zr585       O592   2.390       .  S
Zr586       O612   2.437       .  S
Zr586       O613   2.437       .  S
Zr586       O588   2.439       .  S
Zr586       O589   2.381       .  S
Zr586       O590   2.387       .  S
O587        H624   0.990       .  S
O588        H619   0.990       .  S
O588        H633   0.990       .  S
O590        H616   0.964       .  S
O591       Zr601   2.390       .  S
O592       Zr601   2.384       .  S
O592        H617   0.966       .  S
C593        C639   1.494       .  S
O596        H632   0.991       .  S
O597        C599   1.278       .  A
O598        C599   1.281       .  A
C599        C668   1.451       .  S
O600      Zr3289   2.441   1_455  S
O600        H629   0.990       .  S
Zr601       O604   2.438       .  S
Zr601       O605   2.443       .  S
Zr601      O3288   2.442       .  S
Zr601       O606   2.387       .  S
O602        C607   1.283       .  A
O603        H620   0.990       .  S
O603        H635   0.988       .  S
O604        H621   0.990       .  S
O605        H634   0.989       .  S
O605       H3313   0.990       .  S
O606        C607   1.275       .  A
O608        H627   0.991       .  S
O608        H631   0.990       .  S
O609        H623   0.990       .  S
O609        H630   0.990       .  S
O610        C614   1.277       .  A
O611        C614   1.290       .  A
O612        H622   0.990       .  S
O613        H626   0.990       .  S
H625       O3293   0.990       .  S
C637        C638   1.403       .  A
C637        C642   1.412       .  A
C638        C639   1.399       .  A
C638        H643   1.084       .  S
C639        C640   1.424       .  A
C640        C641   1.415       .  A
C640        H644   1.083       .  S
C641        C642   1.408       .  A
C642        H645   1.084       .  S
C646        C873   1.497       .  S
C646        C647   1.401       .  A
C646        C651   1.410       .  A
C647        C648   1.417       .  A
C647       H1996   1.084       .  S
C648       C1817   1.459       .  S
C648        C649   1.398       .  A
C649        C650   1.383       .  A
C649        H653   1.084       .  S
C650        C651   1.413       .  A
C651        H654   1.084       .  S
H652       C1991   1.084       .  S
C655        C656   1.431       .  A
C655        C660   1.392       .  A
C656        C657   1.428       .  A
C656        H661   1.083       .  S
C657        C658   1.399       .  A
C658       C2003   1.408       .  A
C658       H2006   1.084       .  S
C659       C2002   1.408   1_545  A
C659       C2004   1.401   1_545  A
C660       C2003   1.400       .  A
C660        H663   1.085       .  S
H662       C2002   1.084   1_545  S
C664        C665   1.397       .  A
C664        C669   1.402       .  A
C665        C666   1.390       .  A
C665        H670   1.085       .  S
C666        C667   1.399       .  A
C667        C668   1.398       .  A
C667        H671   1.085       .  S
C668        C669   1.391       .  A
C669        H672   1.084       .  S
C673        C743   1.495       .  S
C673       C2018   1.402       .  A
C673       C3366   1.423   1_455  A
C674       C2017   1.401   1_545  A
C674        C675   1.395       .  A
C674        H679   1.086       .  S
C675        C958   1.473       .  S
C675       C3364   1.403   1_455  A
C676       C3363   1.403       .  A
C676       C2021   1.410   1_545  A
C676        H680   1.084       .  S
C677        C874   1.498       .  S
C677       C2020   1.410       .  A
C677        C678   1.428       .  A
C678       C3361   1.424       .  A
C678        H681   1.083       .  S
C682        C724   1.472       .  S
C682        C683   1.409       .  A
C682        C687   1.397       .  A
C683        C684   1.404       .  A
C683        H688   1.084       .  S
C684        C893   1.467       .  S
C684        C685   1.400       .  A
C685        C686   1.399       .  A
C685        H689   1.085       .  S
C686        C977   1.458       .  S
C686        C687   1.399       .  A
C687        H690   1.085       .  S
C691       C1286   1.476       .  S
C692        C693   1.396       .  A
C693        C872   1.469       .  S
C693        C694   1.410       .  A
C694        C695   1.395       .  A
C694        H698   1.084       .  S
C695        C827   1.469       .  S
C695        C696   1.404       .  A
Zr700       O701   2.441       .  S
Zr700       O702   2.465       .  S
Zr700       O703   2.429       .  S
Zr700       O706   2.490       .  S
Zr700       O708   2.405       .  S
Zr700       O709   2.404       .  S
Zr700       O710   2.442       .  S
Zr700       O711   2.409       .  S
O701        H757   0.990       .  S
O701        H765   0.990       .  S
O702        C722   1.287       .  A
O703        C724   1.283       .  A
O704       Zr714   2.407       .  S
O704        C723   1.269       .  A
O705       Zr713   2.443       .  S
O705        C724   1.283       .  A
O706        C723   1.289       .  A
O707       Zr715   2.455       .  S
O707        C722   1.288       .  A
O708       Zr713   2.404       .  S
O708       Zr715   2.362       .  S
O709       Zr714   2.422       .  S
O709       Zr715   2.360       .  S
O709        H744   0.966       .  S
O710       Zr713   2.419       .  S
O710       Zr730   2.371       .  S
O710        H747   0.964       .  S
O711       Zr714   2.384       .  S
O711       Zr730   2.376       .  S
Zr712      O3425   2.447       .  S
Zr712       O731   2.591       .  S
Zr712       O739   2.512       .  S
Zr712       O727   2.423       .  S
Zr712       O719   2.443       .  S
Zr712       O720   2.361       .  S
Zr712       O721   2.387       .  S
Zr712       O718   2.335       .  S
Zr713       O732   2.435       .  S
Zr713       O725   2.435       .  S
Zr713       O726   2.488       .  S
Zr713       O719   2.400       .  S
Zr713       O720   2.369       .  S
Zr714      O2060   2.438       .  S
Zr714       O738   2.443       .  S
Zr714       O740   2.417       .  S
Zr714       O721   2.405       .  S
Zr714       O718   2.273       .  S
Zr715       O741   2.437       .  S
Zr715      O3430   2.435   1_455  S
Zr715      O3405   2.442   1_455  S
Zr715       O719   2.380       .  S
Zr715       O718   2.328       .  S
O716      Zr2058   2.439   1_545  S
O716        H753   0.990       .  S
O717      Zr3403   2.442       .  S
O717        H748   0.990       .  S
O717       H3450   0.990       .  S
O719        H745   0.961       .  S
O720       Zr730   2.387       .  S
O721       Zr730   2.400       .  S
O721        H746   0.965       .  S
C723       C2114   1.484       .  S
O725        H761   0.990       .  S
O726        C728   1.297       .  A
O727        C728   1.283       .  A
C728       C3467   1.490   1_455  S
O729       Zr730   2.436       .  S
O729        H758   0.990       .  S
Zr730       O733   2.439       .  S
Zr730      O2078   2.442       .  S
Zr730       O735   2.376       .  S
O731        C736   1.314       .  A
O732        H749   0.990       .  S
O732        H764   0.990       .  S
O733        H750   0.991       .  S
O734      Zr2074   2.442   1_545  S
O734        H754   0.990       .  S
O734        H763   0.990       .  S
O735        C736   1.267       .  A
C736       C1329   1.504       .  S
O737      Zr3400   2.447       .  S
O737        H756   0.990       .  S
O737        H760   0.990       .  S
O738        H752   0.991       .  S
O738        H759   0.990       .  S
O739        C743   1.297       .  A
O740        C743   1.282       .  A
O741       H3439   0.991   1_455  S
O742      Zr3403   2.435       .  S
O742        H755   0.990       .  S
H751       O3429   0.991       .  S
H762       O3405   0.990       .  S
C766       C1042   1.486       .  S
C766        C767   1.398   1_556  A
C766        C771   1.404       .  A
C767        H772   1.083       .  S
C768        C812   1.496       .  S
C768        C769   1.413       .  A
C769        C770   1.416       .  A
C769        H773   1.082       .  S
C770       C2067   1.484   1_545  S
C771        H774   1.084       .  S
C775       C1267   1.513       .  S
C775        C776   1.416       .  A
C775        C780   1.407       .  A
C776        C777   1.417       .  A
C776        H781   1.084       .  S
C777        C807   1.485       .  S
C777        C778   1.400       .  A
C778        C779   1.413       .  A
C778        H782   1.084       .  S
C779       C3416   1.491       .  S
C779        C780   1.422       .  A
C780        H783   1.083       .  S
Zr784       O785   2.439       .  S
Zr784       O786   2.483       .  S
Zr784       O787   2.469       .  S
Zr784       O790   2.547       .  S
Zr784       O792   2.401       .  S
Zr784       O793   2.392       .  S
Zr784       O794   2.429       .  S
Zr784       O795   2.377       .  S
O785        H841   0.990       .  S
O785        H849   0.990       .  S
O786        C806   1.295       .  A
O787        C808   1.291       .  A
O788       Zr798   2.369       .  S
O788        C807   1.273       .  A
O789       Zr797   2.422       .  S
O789        C808   1.286       .  A
O790        C807   1.307       .  A
O791       Zr799   2.399       .  S
O791        C806   1.275       .  A
O792       Zr797   2.393       .  S
O792       Zr799   2.377       .  S
O793       Zr798   2.395       .  S
O793       Zr799   2.386       .  S
O793        H828   0.966       .  S
O794       Zr797   2.421       .  S
O794       Zr814   2.379       .  S
O794        H831   0.963       .  S
O795       Zr798   2.368       .  S
O795       Zr814   2.359       .  S
Zr796       O821   2.443       .  S
Zr796       O815   2.493       .  S
Zr796       O823   2.499       .  S
Zr796       O811   2.421       .  S
Zr796       O802   2.402       .  S
Zr796       O803   2.429       .  S
Zr796       O804   2.367       .  S
Zr796       O805   2.381       .  S
Zr797       O816   2.435       .  S
Zr797       O809   2.436       .  S
Zr797       O810   2.480       .  S
Zr797       O803   2.397       .  S
Zr797       O804   2.373       .  S
Zr798       O800   2.437       .  S
Zr798       O822   2.438       .  S
Zr798       O824   2.372       .  S
Zr798       O802   2.375       .  S
Zr798       O805   2.404       .  S
Zr799       O825   2.437       .  S
Zr799       O826   2.436       .  S
Zr799       O801   2.438       .  S
Zr799       O802   2.387       .  S
Zr799       O803   2.385       .  S
O800        H837   0.990       .  S
O801        H832   0.991       .  S
O801        H846   0.990       .  S
O803        H829   0.964       .  S
O804       Zr814   2.374       .  S
O805       Zr814   2.393       .  S
O805        H830   0.965       .  S
C806       C1000   1.489       .  S
C808        C916   1.482       .  S
O809        H845   0.990       .  S
O810        C812   1.293       .  A
O811        C812   1.285       .  A
O813       Zr814   2.440       .  S
O813        H842   0.990       .  S
Zr814       O817   2.442       .  S
Zr814       O818   2.440       .  S
Zr814       O819   2.373       .  S
O815        C820   1.295       .  A
O816        H833   0.990       .  S
O816        H848   0.990       .  S
O817        H834   0.990       .  S
O818        H838   0.990       .  S
O818        H847   0.990       .  S
O819        C820   1.272       .  A
C820        C927   1.486       .  S
O821        H840   0.990       .  S
O821        H844   0.990       .  S
O822        H836   0.990       .  S
O822        H843   0.990       .  S
O823        C827   1.294       .  A
O824        C827   1.272       .  A
O825        H835   0.990       .  S
O826        H839   0.990       .  S
Zr850       O851   2.439       .  S
Zr850       O852   2.449       .  S
Zr850       O853   2.505       .  S
Zr850       O856   2.510       .  S
Zr850       O858   2.397       .  S
Zr850       O859   2.404       .  S
Zr850       O860   2.414       .  S
Zr850       O861   2.401       .  S
O851        H907   0.990       .  S
O851        H915   0.990       .  S
O852        C872   1.288       .  A
O853        C874   1.298       .  A
O854       Zr864   2.399       .  S
O854        C873   1.270       .  A
O855       Zr863   2.442       .  S
O855        C874   1.285       .  A
O856        C873   1.296       .  A
O857       Zr865   2.371       .  S
O857        C872   1.273       .  A
O858       Zr863   2.398       .  S
O858       Zr865   2.388       .  S
O859       Zr864   2.390       .  S
O859       Zr865   2.369       .  S
O859        H894   0.966       .  S
O860       Zr863   2.411       .  S
O860       Zr880   2.397       .  S
O860        H897   0.965       .  S
O861       Zr864   2.393       .  S
O861       Zr880   2.368       .  S
Zr862       O887   2.443       .  S
Zr862       O881   2.443       .  S
Zr862       O889   2.461       .  S
Zr862       O877   2.424       .  S
Zr862       O868   2.402       .  S
Zr862       O869   2.418       .  S
Zr862       O870   2.386       .  S
Zr862       O871   2.387       .  S
Zr863       O882   2.434       .  S
Zr863       O875   2.434       .  S
Zr863       O876   2.460       .  S
Zr863       O869   2.398       .  S
Zr863       O870   2.390       .  S
Zr864       O866   2.435       .  S
Zr864       O888   2.436       .  S
Zr864       O890   2.405       .  S
Zr864       O868   2.389       .  S
Zr864       O871   2.379       .  S
Zr865       O891   2.436       .  S
Zr865       O892   2.436       .  S
Zr865       O867   2.437       .  S
Zr865       O868   2.380       .  S
Zr865       O869   2.363       .  S
O866        H903   0.990       .  S
O867        H898   0.990       .  S
O867        H912   0.990       .  S
O869        H895   0.963       .  S
O870       Zr880   2.384       .  S
O871       Zr880   2.394       .  S
O871        H896   0.966       .  S
O875        H911   0.990       .  S
O876        C878   1.291       .  A
O877        C878   1.284       .  A
C878       C1309   1.482       .  S
O879      Zr2224   2.441   1_545  S
O879        H908   0.990       .  S
Zr880      O2223   2.441       .  S
Zr880      O2227   2.438       .  S
Zr880      O2228   2.440       .  S
Zr880       O885   2.380       .  S
O881        C886   1.279       .  A
O882        H899   0.990       .  S
O882        H914   0.990       .  S
O883      Zr2224   2.439   1_545  S
O883        H900   0.990       .  S
O884      Zr2224   2.439   1_545  S
O884        H904   0.991       .  S
O884       H2257   0.990       .  S
O885        C886   1.268       .  A
C886       C2262   1.461       .  S
O887        H906   0.990       .  S
O887        H910   0.990       .  S
O888        H902   0.990       .  S
O888        H909   0.990       .  S
O889        C893   1.288       .  A
O890        C893   1.278       .  A
O891        H901   0.990       .  S
O892        H905   0.990       .  S
H913       O2228   0.990       .  S
C916        C917   1.396       .  A
C916        C921   1.407       .  A
C917        C918   1.396       .  A
C917        H922   1.085       .  S
C918       C2230   1.460   1_545  S
C918        C919   1.397       .  A
C919        C920   1.401       .  A
C919        H923   1.084       .  S
C920       C1124   1.484       .  S
C920        C921   1.422       .  A
C921        H924   1.083       .  S
C925       C1061   1.487       .  S
C925        C926   1.411       .  A
C925        C930   1.396       .  A
C926        C927   1.413       .  A
C926        H931   1.083       .  S
C927        C928   1.391       .  A
C928        C929   1.406       .  A
C928        H932   1.084       .  S
C929        C956   1.461       .  S
C929        C930   1.403       .  A
C930        H933   1.084       .  S
Zr934       O935   2.442       .  S
Zr934       O936   2.414       .  S
Zr934       O937   2.434       .  S
Zr934       O940   2.451       .  S
Zr934       O942   2.387       .  S
Zr934       O943   2.398       .  S
Zr934       O944   2.409       .  S
Zr934       O945   2.381       .  S
O935        H991   0.990       .  S
O935       H3687   0.990       .  S
O936        C956   1.279       .  A
O937        C958   1.284       .  A
O938       Zr948   2.424       .  S
O938        C957   1.279       .  A
O939       Zr947   2.453       .  S
O939        C958   1.288       .  A
O940        C957   1.287       .  A
O941       Zr949   2.391       .  S
O941        C956   1.273       .  A
O942       Zr947   2.397       .  S
O942       Zr949   2.381       .  S
O943       Zr948   2.385       .  S
O943       Zr949   2.369       .  S
O943        H978   0.966       .  S
O944       Zr947   2.416       .  S
O944       Zr964   2.391       .  S
O944        H981   0.965       .  S
O945       Zr948   2.389       .  S
O945       Zr964   2.358       .  S
Zr946       O971   2.444       .  S
Zr946       O965   2.426       .  S
Zr946       O973   2.410       .  S
Zr946       O961   2.411       .  S
Zr946       O952   2.409       .  S
Zr946       O953   2.402       .  S
Zr946       O954   2.382       .  S
Zr946       O955   2.389       .  S
Zr947       O966   2.434       .  S
Zr947       O959   2.435       .  S
Zr947       O960   2.482       .  S
Zr947       O953   2.403       .  S
Zr947       O954   2.381       .  S
Zr948       O950   2.435       .  S
Zr948       O972   2.437       .  S
Zr948       O974   2.425       .  S
Zr948       O952   2.390       .  S
Zr948       O955   2.384       .  S
Zr949       O975   2.436       .  S
Zr949       O976   2.434       .  S
Zr949       O951   2.437       .  S
Zr949       O952   2.392       .  S
Zr949       O953   2.361       .  S
O950        H987   0.989       .  S
O951        H982   0.990       .  S
O951        H996   0.990       .  S
O953        H979   0.963       .  S
O954       Zr964   2.391       .  S
O955       Zr964   2.384       .  S
O955        H980   0.966       .  S
C957       C1093   1.476       .  S
O959        H995   0.990       .  S
O960        C962   1.296       .  A
O961        C962   1.282       .  A
O963      Zr3652   2.434       .  S
O963        H992   0.990       .  S
Zr964      O3651   2.435   1_455  S
Zr964      O3655   2.436   1_455  S
Zr964      O3656   2.438       .  S
Zr964       O969   2.387       .  S
O965        C970   1.277       .  A
O966        H983   0.990       .  S
O966        H998   0.990   1_455  S
O967      Zr3652   2.435       .  S
O967        H984   0.990       .  S
O968      Zr3652   2.437       .  S
O968        H988   0.990       .  S
O968       H3685   0.991       .  S
O969        C970   1.264       .  A
C970       C3690   1.456   1_455  S
O971        H990   0.991       .  S
O971        H994   0.991       .  S
O972        H986   0.990       .  S
O972        H993   0.990       .  S
O973        C977   1.280       .  A
O974        C977   1.282       .  A
O975        H985   0.990       .  S
O976        H989   0.990       .  S
H997       O3656   0.991       .  S
H999       O3623   0.990       .  S
C1000      C1001   1.395       .  A
C1000      C1005   1.421       .  A
C1001      C1002   1.399       .  A
C1001      H1006   1.084       .  S
C1002      C3658   1.456       .  S
C1002      C1003   1.401       .  A
C1004      C1138   1.476   1_554  S
C1009      C1130   1.484       .  S
C1009      C2354   1.418   1_545  A
C1009      C3702   1.396       .  A
C1010      C2353   1.418       .  A
C1010      C1011   1.422       .  A
C1010      H1015   1.083       .  S
C1011      C1266   1.492       .  S
C1011      C5044   1.409       .  A
C1012      C5043   1.409       .  A
C1012      C1013   1.403   1_665  A
C1012      H2360   1.084   1_655  S
C1013      C1041   1.464       .  S
C1013      C1014   1.394       .  A
C1014      C3697   1.395   1_455  A
C1014      H1017   1.086       .  S
H1016      C2356   1.084   1_455  S
Zr1018     O1019   2.443       .  S
Zr1018     O1020   2.464       .  S
Zr1018     O1021   2.464       .  S
Zr1018     O1024   2.426       .  S
Zr1018     O1026   2.389       .  S
Zr1018     O1027   2.396       .  S
Zr1018     O1028   2.431       .  S
Zr1018     O1029   2.415       .  S
O1019      H1075   0.990       .  S
O1019      H1083   0.991       .  S
O1020      C1040   1.289       .  A
O1021      C1042   1.284       .  A
O1022     Zr1032   2.441       .  S
O1022      C1041   1.286       .  A
O1023     Zr1031   2.412       .  S
O1023      C1042   1.274       .  A
O1024      C1041   1.283       .  A
O1025     Zr1033   2.381       .  S
O1025      C1040   1.274       .  A
O1026     Zr1031   2.401       .  S
O1026     Zr1033   2.389       .  S
O1027     Zr1032   2.398       .  S
O1027     Zr1033   2.380       .  S
O1027      H1062   0.966       .  S
O1028     Zr1031   2.396       .  S
O1028     Zr1048   2.385       .  S
O1028      H1065   0.963       .  S
O1029     Zr1032   2.405       .  S
O1029     Zr1048   2.388       .  S
Zr1030     O1055   2.451       .  S
Zr1030     O1049   2.409       .  S
Zr1030     O1057   2.400       .  S
Zr1030     O1045   2.420       .  S
Zr1030     O1036   2.395       .  S
Zr1030     O1037   2.398       .  S
Zr1030     O1038   2.390       .  S
Zr1030     O1039   2.405       .  S
Zr1031     O1050   2.434       .  S
Zr1031     O1043   2.434       .  S
Zr1031     O1044   2.412       .  S
Zr1031     O1037   2.399       .  S
Zr1031     O1038   2.382       .  S
Zr1032     O1034   2.435       .  S
Zr1032     O1056   2.439       .  S
Zr1032     O1058   2.464       .  S
Zr1032     O1036   2.392       .  S
Zr1032     O1039   2.382       .  S
Zr1033     O1059   2.437       .  S
Zr1033     O1060   2.437       .  S
Zr1033     O1035   2.438       .  S
Zr1033     O1036   2.376       .  S
Zr1033     O1037   2.378       .  S
O1034      H1071   0.990       .  S
O1035      H1066   0.991       .  S
O1035      H1080   0.990       .  S
O1037      H1063   0.965       .  S
O1038     Zr1048   2.386       .  S
O1039     Zr1048   2.374       .  S
O1039      H1064   0.965       .  S
C1040      C1088   1.482       .  S
O1043      H1079   0.990       .  S
O1044      C1046   1.279       .  A
O1045      C1046   1.282       .  A
C1046      C1338   1.451       .  S
O1047     Zr2392   2.438       .  S
O1047      H1076   0.990       .  S
Zr1048     O2391   2.440   1_545  S
Zr1048     O1051   2.440   1_545  S
Zr1048     O2396   2.439   1_545  S
Zr1048     O1053   2.412       .  S
O1049      C1054   1.271       .  A
O1050      H1067   0.990       .  S
O1050      H1082   0.990       .  S
O1051      H2412   0.990       .  S
O1052     Zr2392   2.439       .  S
O1052      H1072   0.990       .  S
O1052      H2425   0.989       .  S
O1053      C1054   1.270       .  A
C1054      C1331   1.459       .  S
O1055      H1074   0.990       .  S
O1055      H1078   0.990       .  S
O1056      H1070   0.990       .  S
O1056      H1077   0.990       .  S
O1057      C1061   1.279       .  A
O1058      C1061   1.293       .  A
O1059      H1069   0.990       .  S
O1060      H1073   0.990       .  S
H1068      O2395   0.990       .  S
H1081      O2396   0.990       .  S
C1084      C1085   1.415       .  A
C1084      C1089   1.404       .  A
C1085      C1086   1.410       .  A
C1085      H1090   1.084       .  S
C1086      C1220   1.494       .  S
C1086      C1087   1.399       .  A
C1087      C1088   1.414       .  A
C1087      H1091   1.083       .  S
C1088      C1089   1.403       .  A
C1089      H1092   1.084       .  S
C1093      C1094   1.402       .  A
C1093      C1098   1.402       .  A
C1094      C1095   1.405       .  A
C1094      H1099   1.085       .  S
C1095      C1213   1.461       .  S
C1095      C1096   1.387       .  A
C1096      C1097   1.401       .  A
C1096      H1100   1.083       .  S
C1097      C3814   1.453   1_455  S
C1097      C1098   1.402       .  A
C1098      H3789   1.084       .  S
H1101      C3786   1.084       .  S
Zr1102     O1103   2.443       .  S
Zr1102     O1104   2.384       .  S
Zr1102     O1105   2.414       .  S
Zr1102     O1108   2.396       .  S
Zr1102     O1110   2.394       .  S
Zr1102     O1111   2.403       .  S
Zr1102     O1112   2.417       .  S
Zr1102     O1113   2.394       .  S
O1103      H1159   0.990       .  S
O1103      H1167   0.991       .  S
O1104      C1124   1.273       .  A
O1105      C1126   1.273       .  A
O1106     Zr1116   2.421       .  S
O1106      C1125   1.278       .  A
O1107     Zr1115   2.405       .  S
O1107      C1126   1.267       .  A
O1108      C1125   1.277       .  A
O1109     Zr1117   2.472       .  S
O1109      C1124   1.292       .  A
O1110     Zr1115   2.414       .  S
O1110     Zr1117   2.362       .  S
O1111     Zr1116   2.387       .  S
O1111     Zr1117   2.349       .  S
O1111      H1146   0.966       .  S
O1112     Zr1115   2.410       .  S
O1112     Zr1132   2.376       .  S
O1112      H1149   0.964       .  S
O1113     Zr1116   2.397       .  S
O1113     Zr1132   2.374       .  S
Zr1114     O1139   2.450       .  S
Zr1114     O1133   2.539       .  S
Zr1114     O1141   2.367       .  S
Zr1114     O1129   2.493       .  S
Zr1114     O1121   2.427       .  S
Zr1114     O1122   2.370       .  S
Zr1114     O1123   2.384       .  S
Zr1114     O1120   2.349       .  S
Zr1115     O3822   2.446       .  S
Zr1115     O1127   2.438       .  S
Zr1115     O1128   2.426       .  S
Zr1115     O1121   2.394       .  S
Zr1115     O1122   2.402       .  S
Zr1116     O1118   2.439       .  S
Zr1116     O1140   2.442       .  S
Zr1116     O1142   2.448       .  S
Zr1116     O1123   2.359       .  S
Zr1116     O1120   2.282       .  S
Zr1117     O1143   2.436       .  S
Zr1117     O2488   2.436   1_545  S
Zr1117     O1119   2.443       .  S
Zr1117     O1121   2.394       .  S
Zr1117     O1120   2.330       .  S
O1118      H1155   0.990       .  S
O1119      H1150   0.990       .  S
O1119      H1164   0.990       .  S
O1121      H1147   0.961       .  S
O1122     Zr1132   2.403       .  S
O1123     Zr1132   2.399       .  S
O1123      H1148   0.963       .  S
C1125      C1336   1.454       .  S
C1126      C3785   1.453       .  S
O1127      H1163   0.990       .  S
O1128      C1130   1.283       .  A
O1129      C1130   1.291       .  A
O1131     Zr1132   2.442       .  S
O1131      H1160   0.990       .  S
Zr1132     O1135   2.434       .  S
Zr1132     O1136   2.440       .  S
Zr1132     O1137   2.357       .  S
O1133      C1138   1.303       .  A
O1134     Zr3803   2.444   1_455  S
O1134      H1151   0.989       .  S
O1134      H1166   0.989       .  S
O1135      H1152   0.990       .  S
O1136      H1156   0.990       .  S
O1136      H1165   0.989       .  S
O1137      C1138   1.268       .  A
O1139      H2502   0.991       .  S
O1139      H1162   0.991       .  S
O1140      H1154   0.991       .  S
O1140      H1161   0.990       .  S
O1141      C1145   1.270       .  A
O1142      C1145   1.289       .  A
O1143      H1153   0.990       .  S
O1144     Zr2461   2.437       .  S
O1144      H1157   0.990       .  S
C1145      C2664   1.459   1_545  S
H1158      O2483   0.991       .  S
C1168      C1205   1.484       .  S
C1168      C1169   1.425       .  A
C1168      C1173   1.396       .  A
C1169      C1170   1.423       .  A
C1169      H1174   1.083       .  S
C1170      C3859   1.406       .  A
C1171      C3858   1.407       .  A
C1171      C1172   1.401       .  A
C1171      H1175   1.084       .  S
C1172      C1279   1.461       .  S
C1172      C3861   1.401       .  A
C1173      C3860   1.401   1_455  A
C1173      H1176   1.085       .  S
Zr1177     O1178   2.440       .  S
Zr1177     O1179   2.492       .  S
Zr1177     O1180   2.561       .  S
Zr1177     O1183   2.469       .  S
Zr1177     O1185   2.386       .  S
Zr1177     O1186   2.404       .  S
Zr1177     O1187   2.402       .  S
Zr1177     O1188   2.418       .  S
O1178      H1234   0.990       .  S
O1178      H1242   0.990       .  S
O1179      C1199   1.296       .  A
O1180      C1201   1.310       .  A
O1181     Zr1191   2.473       .  S
O1181      C1200   1.293       .  A
O1182     Zr1190   2.380       .  S
O1182      C1201   1.274       .  A
O1183      C1200   1.294       .  A
O1184     Zr1192   2.356       .  S
O1184      C1199   1.270       .  A
O1185     Zr1190   2.407       .  S
O1185     Zr1192   2.395       .  S
O1186     Zr1191   2.373       .  S
O1186     Zr1192   2.378       .  S
O1186      H1221   0.964       .  S
O1187     Zr1190   2.405       .  S
O1187     Zr1207   2.354       .  S
O1187      H1224   0.962       .  S
O1188     Zr1191   2.406       .  S
O1188     Zr1207   2.382       .  S
Zr1189     O1214   2.432       .  S
Zr1189     O1208   2.476       .  S
Zr1189     O1216   2.425       .  S
Zr1189     O1204   2.525       .  S
Zr1189     O1195   2.416       .  S
Zr1189     O1196   2.397       .  S
Zr1189     O1197   2.378       .  S
Zr1189     O1198   2.404       .  S
Zr1190     O1209   2.436       .  S
Zr1190     O1202   2.435       .  S
Zr1190     O1203   2.407       .  S
Zr1190     O1196   2.388       .  S
Zr1190     O1197   2.395       .  S
Zr1191     O1193   2.435       .  S
Zr1191     O1215   2.438       .  S
Zr1191     O1217   2.478       .  S
Zr1191     O1195   2.402       .  S
Zr1191     O1198   2.372       .  S
Zr1192     O1218   2.433       .  S
Zr1192     O1219   2.439       .  S
Zr1192     O1194   2.440       .  S
Zr1192     O1195   2.387       .  S
Zr1192     O1196   2.347       .  S
O1193      H1230   0.990       .  S
O1194      H1225   0.990       .  S
O1194      H1239   0.990       .  S
O1196      H1222   0.961       .  S
O1197     Zr1207   2.400       .  S
O1198     Zr1207   2.378       .  S
O1198      H1223   0.965       .  S
C1199      C1322   1.468       .  S
C1200      C1313   1.509       .  S
C1201      C1327   1.491       .  S
O1202      H1238   0.990       .  S
O1203      C1205   1.279       .  A
O1204      C1205   1.300       .  A
O1206     Zr1207   2.443       .  S
O1206      H1235   0.990       .  S
Zr1207     O1210   2.437       .  S
Zr1207     O1211   2.441       .  S
Zr1207     O1212   2.361       .  S
O1208      C1213   1.291       .  A
O1209      H1226   0.990       .  S
O1209      H1241   0.990       .  S
O1210      H1227   0.990       .  S
O1211      H1231   0.990       .  S
O1211      H1240   0.990       .  S
O1212      C1213   1.271       .  A
O1214      H1233   0.990       .  S
O1214      H1237   0.989       .  S
O1215      H1229   0.990       .  S
O1215      H1236   0.990       .  S
O1216      C1220   1.283       .  A
O1217      C1220   1.295       .  A
O1218      H1228   0.990       .  S
O1219      H1232   0.990       .  S
Zr1243     O1244   2.439       .  S
Zr1243     O1245   2.502       .  S
Zr1243     O1246   2.533       .  S
Zr1243     O1249   2.496       .  S
Zr1243     O1251   2.400       .  S
Zr1243     O1252   2.401       .  S
Zr1243     O1253   2.445       .  S
Zr1243     O1254   2.414       .  S
O1244      H1300   0.990       .  S
O1244      H1308   0.990       .  S
O1245      C1265   1.299       .  A
O1246      C1267   1.295       .  A
O1247     Zr1257   2.439       .  S
O1247      C1266   1.285       .  A
O1248     Zr1256   2.386       .  S
O1248      C1267   1.264       .  A
O1249      C1266   1.299       .  A
O1250     Zr1258   2.396       .  S
O1250      C1265   1.276       .  A
O1251     Zr1256   2.413       .  S
O1251     Zr1258   2.379       .  S
O1252     Zr1257   2.386       .  S
O1252     Zr1258   2.383       .  S
O1252      H1287   0.964       .  S
O1253     Zr1256   2.411       .  S
O1253     Zr1273   2.372       .  S
O1253      H1290   0.964       .  S
O1254     Zr1257   2.397       .  S
O1254     Zr1273   2.386       .  S
Zr1255     O1280   2.446       .  S
Zr1255     O1274   2.450       .  S
Zr1255     O1282   2.399       .  S
Zr1255     O1270   2.433       .  S
Zr1255     O1261   2.402       .  S
Zr1255     O1262   2.414       .  S
Zr1255     O1263   2.372       .  S
Zr1255     O1264   2.390       .  S
Zr1256     O1275   2.439       .  S
Zr1256     O1268   2.430       .  S
Zr1256     O1269   2.413       .  S
Zr1256     O1262   2.387       .  S
Zr1256     O1263   2.385       .  S
Zr1257     O1259   2.436       .  S
Zr1257     O1281   2.439       .  S
Zr1257     O1283   2.452       .  S
Zr1257     O1261   2.380       .  S
Zr1257     O1264   2.391       .  S
Zr1258     O1284   2.436       .  S
Zr1258     O1285   2.437       .  S
Zr1258     O1260   2.438       .  S
Zr1258     O1261   2.380       .  S
Zr1258     O1262   2.385       .  S
O1259      H1296   0.990       .  S
O1260      H1291   0.990       .  S
O1260      H1305   0.990       .  S
O1262      H1288   0.964       .  S
O1263     Zr1273   2.391       .  S
O1264     Zr1273   2.384       .  S
O1264      H1289   0.966       .  S
C1265      C1311   1.495       .  S
O1268      H1304   0.991       .  S
O1269      C1271   1.279       .  A
O1270      C1271   1.280       .  A
C1271      C1340   1.452       .  S
O1272     Zr3961   2.442   1_455  S
O1272      H1301   0.990       .  S
Zr1273     O3960   2.442       .  S
Zr1273     O1276   2.438       .  S
Zr1273     O1277   2.442       .  S
Zr1273     O1278   2.386       .  S
O1274      C1279   1.283       .  A
O1275      H1292   0.990       .  S
O1275      H1307   0.988       .  S
O1276      H1293   0.990       .  S
O1277      H3985   0.990       .  S
O1277      H1306   0.989       .  S
O1278      C1279   1.275       .  A
O1280      H1299   0.991       .  S
O1280      H1303   0.990       .  S
O1281      H1295   0.990       .  S
O1281      H1302   0.990       .  S
O1282      C1286   1.277       .  A
O1283      C1286   1.290       .  A
O1284      H1294   0.990       .  S
O1285      H1298   0.990       .  S
H1297      O3965   0.990       .  S
C1309      C1310   1.404       .  A
C1309      C1314   1.412       .  A
C1310      C1311   1.399       .  A
C1310      H1315   1.084       .  S
C1311      C1312   1.424       .  A
C1312      C1313   1.415       .  A
C1312      H1316   1.083       .  S
C1313      C1314   1.409       .  A
C1314      H1317   1.084       .  S
C1318      C1319   1.401       .  A
C1318      C1323   1.410       .  A
C1319      C1320   1.417       .  A
C1319      H2668   1.084       .  S
C1320      C2489   1.459       .  S
C1320      C1321   1.397       .  A
C1321      C1322   1.382       .  A
C1321      H1325   1.084       .  S
C1322      C1323   1.413       .  A
C1323      H1326   1.084       .  S
H1324      C2663   1.084       .  S
C1327      C1328   1.431       .  A
C1327      C1332   1.391       .  A
C1328      C1329   1.428       .  A
C1328      H1333   1.083       .  S
C1329      C1330   1.399       .  A
C1330      C2675   1.408       .  A
C1330      H2678   1.084       .  S
C1331      C2674   1.408   1_545  A
C1331      C2676   1.400   1_545  A
C1332      C2675   1.399       .  A
C1332      H1335   1.085       .  S
H1334      C2674   1.084   1_545  S
C1336      C1337   1.397       .  A
C1336      C1341   1.402       .  A
C1337      C1338   1.390       .  A
C1337      H1342   1.085       .  S
C1338      C1339   1.399       .  A
C1339      C1340   1.399       .  A
C1339      H1343   1.085       .  S
C1340      C1341   1.391       .  A
C1341      H1344   1.084       .  S
C1345      C1415   1.495       .  S
C1345      C4038   1.423   1_455  A
C1346      C1347   1.395       .  A
C1346      H1351   1.086       .  S
C1347      C1630   1.471       .  S
C1347      C4036   1.402   1_455  A
C1348      C4035   1.403       .  A
C1348      H1352   1.084       .  S
C1349      C1546   1.497       .  S
C1349      C1350   1.428       .  A
C1350      C4033   1.423       .  A
C1350      H1353   1.083       .  S
C1354      C1396   1.472       .  S
C1354      C1355   1.409       .  A
C1354      C1359   1.397       .  A
C1355      C1356   1.404       .  A
C1355      H1360   1.084       .  S
C1356      C1565   1.467       .  S
C1356      C1357   1.401       .  A
C1357      C1358   1.399       .  A
C1357      H1361   1.085       .  S
C1358      C1649   1.459       .  S
C1358      C1359   1.398       .  A
C1359      H1362   1.085       .  S
C1363      C1958   1.476       .  S
C1363      C2036   1.397       .  A
C1363      C2040   1.414       .  A
C1364      C2035   1.396   1_554  A
C1364      C1365   1.394       .  A
C1364      H2041   1.084   1_554  S
C1365      C1544   1.467       .  S
C1365      C1366   1.410       .  A
C1366      C1367   1.395       .  A
C1366      H1370   1.084       .  S
C1367      C1499   1.469       .  S
C1367      C1368   1.404   1_554  A
C1368      C2035   1.414       .  A
C1368      H2043   1.083       .  S
H1369      C2036   1.083       .  S
H1371      C2040   1.084       .  S
Zr1372     O1373   2.441       .  S
Zr1372     O1374   2.465       .  S
Zr1372     O1375   2.428       .  S
Zr1372     O1378   2.491       .  S
Zr1372     O1380   2.406       .  S
Zr1372     O1381   2.404       .  S
Zr1372     O1382   2.442       .  S
Zr1372     O1383   2.408       .  S
O1373      H1429   0.990   1_554  S
O1373      H1437   0.990       .  S
O1374      C1394   1.287       .  A
O1375      C1396   1.283       .  A
O1376     Zr1386   2.407       .  S
O1376      C1395   1.269       .  A
O1377     Zr1385   2.444       .  S
O1377      C1396   1.283       .  A
O1378      C1395   1.289       .  A
O1379     Zr1387   2.458       .  S
O1379      C1394   1.288       .  A
O1380     Zr1385   2.404       .  S
O1380     Zr1387   2.361       .  S
O1381     Zr1386   2.423       .  S
O1381     Zr1387   2.361       .  S
O1381      H1416   0.966       .  S
O1382     Zr1385   2.419       .  S
O1382     Zr1402   2.371       .  S
O1382      H1419   0.964       .  S
O1383     Zr1386   2.383       .  S
O1383     Zr1402   2.375       .  S
Zr1384     O4097   2.447       .  S
Zr1384     O1403   2.590       .  S
Zr1384     O1411   2.512       .  S
Zr1384     O1399   2.424       .  S
Zr1384     O1391   2.443       .  S
Zr1384     O1392   2.360       .  S
Zr1384     O1393   2.386       .  S
Zr1384     O1390   2.336       .  S
Zr1385     O1404   2.434       .  S
Zr1385     O1397   2.435       .  S
Zr1385     O1398   2.487       .  S
Zr1385     O1391   2.401       .  S
Zr1385     O1392   2.369       .  S
Zr1386     O1410   2.443   1_565  S
Zr1386     O1412   2.416       .  S
Zr1386     O1393   2.405       .  S
Zr1386     O1390   2.274       .  S
Zr1387     O1413   2.437       .  S
Zr1387     O4102   2.435   1_455  S
Zr1387     O4077   2.442   1_455  S
Zr1387     O1391   2.381       .  S
Zr1387     O1390   2.329       .  S
O1388      H1425   0.990       .  S
O1389     Zr4075   2.443       .  S
O1389      H1420   0.990       .  S
O1389      H4122   0.990       .  S
O1391      H1417   0.962       .  S
O1392     Zr1402   2.387       .  S
O1393     Zr1402   2.398       .  S
O1393      H1418   0.965       .  S
C1394      C2514   1.509   1_554  S
O1397      H1433   0.990       .  S
O1398      C1400   1.297       .  A
O1399      C1400   1.283       .  A
C1400      C4139   1.491   1_455  S
O1401     Zr1402   2.437       .  S
O1401      H1430   0.990   1_565  S
Zr1402     O1405   2.439       .  S
Zr1402     O1407   2.374       .  S
O1403      C1408   1.314       .  A
O1404      H1421   0.990       .  S
O1404      H1436   0.990       .  S
O1405      H1422   0.991       .  S
O1406      H1426   0.990       .  S
O1406      H1435   0.989       .  S
O1407      C1408   1.268       .  A
C1408      C2001   1.504       .  S
O1409     Zr4072   2.447       .  S
O1409      H1428   0.990       .  S
O1409      H1432   0.990       .  S
O1410      H1424   0.991       .  S
O1410      H1431   0.990       .  S
O1411      C1415   1.297       .  A
O1412      C1415   1.282       .  A
O1413      H4111   0.991       .  S
O1414     Zr4075   2.435       .  S
O1414      H1427   0.990       .  S
H1423      O4101   0.991       .  S
H1434      O4077   0.990       .  S
C1438      C1714   1.487       .  S
C1438      C1439   1.398       .  A
C1438      C1443   1.403       .  A
C1439      C2112   1.411       .  A
C1439      H1444   1.083       .  S
C1440      C1484   1.496       .  S
C1440      C2111   1.412       .  A
C1440      C1441   1.412       .  A
C1441      C1442   1.415       .  A
C1441      H1445   1.082       .  S
C1442      C2115   1.411   1_554  A
C1443      C2114   1.411       .  A
C1443      H1446   1.084       .  S
C1447      C1939   1.513       .  S
C1447      C1448   1.417       .  A
C1447      C1452   1.408       .  A
C1448      C1449   1.417       .  A
C1448      H1453   1.084       .  S
C1449      C1479   1.485       .  S
C1449      C1450   1.400       .  A
C1450      C1451   1.413       .  A
C1450      H1454   1.084       .  S
C1451      C4088   1.491       .  S
C1451      C1452   1.422       .  A
C1452      H1455   1.083       .  S
Zr1456     O1457   2.439       .  S
Zr1456     O1458   2.481       .  S
Zr1456     O1459   2.469       .  S
Zr1456     O1462   2.546       .  S
Zr1456     O1464   2.403       .  S
Zr1456     O1465   2.391       .  S
Zr1456     O1466   2.428       .  S
Zr1456     O1467   2.377       .  S
O1457      H1513   0.990       .  S
O1457      H1521   0.991       .  S
O1458      C1478   1.295       .  A
O1459      C1480   1.291       .  A
O1460     Zr1470   2.371       .  S
O1460      C1479   1.273       .  A
O1461     Zr1469   2.424       .  S
O1461      C1480   1.287       .  A
O1462      C1479   1.307       .  A
O1463     Zr1471   2.396       .  S
O1463      C1478   1.275       .  A
O1464     Zr1469   2.394       .  S
O1464     Zr1471   2.378       .  S
O1465     Zr1470   2.394       .  S
O1465     Zr1471   2.385       .  S
O1465      H1500   0.966       .  S
O1466     Zr1469   2.421       .  S
O1466     Zr1486   2.378       .  S
O1466      H1503   0.963       .  S
O1467     Zr1470   2.369       .  S
O1467     Zr1486   2.359       .  S
Zr1468     O1493   2.443       .  S
Zr1468     O1487   2.489       .  S
Zr1468     O1495   2.498       .  S
Zr1468     O1483   2.418       .  S
Zr1468     O1474   2.400       .  S
Zr1468     O1475   2.430       .  S
Zr1468     O1476   2.367       .  S
Zr1468     O1477   2.380       .  S
Zr1469     O1488   2.436       .  S
Zr1469     O1481   2.436       .  S
Zr1469     O1482   2.482       .  S
Zr1469     O1475   2.398       .  S
Zr1469     O1476   2.371       .  S
Zr1470     O1472   2.437       .  S
Zr1470     O1494   2.438       .  S
Zr1470     O1496   2.373       .  S
Zr1470     O1474   2.375       .  S
Zr1470     O1477   2.404       .  S
Zr1471     O1497   2.436       .  S
Zr1471     O1498   2.436   1_554  S
Zr1471     O1473   2.439       .  S
Zr1471     O1474   2.386       .  S
Zr1471     O1475   2.384       .  S
O1472      H1509   0.990       .  S
O1473      H1504   0.991   1_554  S
O1473      H1518   0.990       .  S
O1475      H1501   0.964       .  S
O1476     Zr1486   2.374       .  S
O1477     Zr1486   2.392       .  S
O1477      H1502   0.966       .  S
C1478      C1672   1.487       .  S
C1480      C1588   1.483       .  S
O1481      H1517   0.990       .  S
O1482      C1484   1.293       .  A
O1483      C1484   1.285       .  A
O1485     Zr1486   2.440       .  S
O1485      H1514   0.989       .  S
Zr1486     O1489   2.442       .  S
Zr1486     O1490   2.440       .  S
Zr1486     O1491   2.374       .  S
O1487      C1492   1.295       .  A
O1488      H1505   0.990       .  S
O1488      H1520   0.990       .  S
O1489      H1506   0.990       .  S
O1490      H1510   0.990       .  S
O1490      H1519   0.990       .  S
O1491      C1492   1.273       .  A
C1492      C1599   1.484       .  S
O1493      H1512   0.990       .  S
O1493      H1516   0.990       .  S
O1494      H1508   0.990       .  S
O1494      H1515   0.990       .  S
O1495      C1499   1.294       .  A
O1496      C1499   1.272       .  A
O1497      H1507   0.990       .  S
O1498      H1511   0.990       .  S
Zr1522     O1523   2.440       .  S
Zr1522     O1524   2.449       .  S
Zr1522     O1525   2.504       .  S
Zr1522     O1528   2.513       .  S
Zr1522     O1530   2.397       .  S
Zr1522     O1531   2.403       .  S
Zr1522     O1532   2.415       .  S
Zr1522     O1533   2.401       .  S
O1523      H1579   0.990       .  S
O1523      H1587   0.990       .  S
O1524      C1544   1.288       .  A
O1525      C1546   1.298       .  A
O1526     Zr1536   2.398       .  S
O1526      C1545   1.270   1_554  A
O1527     Zr1535   2.440       .  S
O1527      C1546   1.285       .  A
O1528      C1545   1.296   1_554  A
O1529     Zr1537   2.365       .  S
O1529      C1544   1.271       .  A
O1530     Zr1535   2.397       .  S
O1530     Zr1537   2.387       .  S
O1531     Zr1536   2.388       .  S
O1531     Zr1537   2.369       .  S
O1531      H1566   0.966       .  S
O1532     Zr1535   2.412       .  S
O1532     Zr1552   2.397       .  S
O1532      H1569   0.965       .  S
O1533     Zr1536   2.396       .  S
O1533     Zr1552   2.371       .  S
Zr1534     O1559   2.442       .  S
Zr1534     O1553   2.441       .  S
Zr1534     O1561   2.459       .  S
Zr1534     O1549   2.426       .  S
Zr1534     O1540   2.402       .  S
Zr1534     O1541   2.415       .  S
Zr1534     O1542   2.386       .  S
Zr1534     O1543   2.388       .  S
Zr1535     O1554   2.434       .  S
Zr1535     O1547   2.434       .  S
Zr1535     O1548   2.457       .  S
Zr1535     O1541   2.398       .  S
Zr1535     O1542   2.389       .  S
Zr1536     O1538   2.435       .  S
Zr1536     O1560   2.437       .  S
Zr1536     O1562   2.405       .  S
Zr1536     O1540   2.389       .  S
Zr1536     O1543   2.379       .  S
Zr1537     O1563   2.436       .  S
Zr1537     O1564   2.435       .  S
Zr1537     O1539   2.437       .  S
Zr1537     O1540   2.379       .  S
Zr1537     O1541   2.359       .  S
O1538      H1575   0.990       .  S
O1539      H1570   0.990       .  S
O1539      H1584   0.990       .  S
O1541      H1567   0.963       .  S
O1542     Zr1552   2.384       .  S
O1543     Zr1552   2.395       .  S
O1543      H1568   0.966       .  S
C1545      C2662   1.498       .  S
O1547      H1583   0.990       .  S
O1548      C1550   1.291       .  A
O1549      C1550   1.284       .  A
C1550      C1981   1.481       .  S
O1551      H1580   0.990       .  S
Zr1552     O1557   2.380   1_565  S
O1553      C1558   1.279       .  A
O1554      H1571   0.990       .  S
O1554      H1586   0.990   1_565  S
O1555      H1572   0.990       .  S
O1556      H1576   0.991       .  S
O1557      C1558   1.268   1_545  A
O1559      H1578   0.990       .  S
O1559      H1582   0.990       .  S
O1560      H1574   0.990       .  S
O1560      H1581   0.990       .  S
O1561      C1565   1.287       .  A
O1562      C1565   1.279       .  A
O1563      H1573   0.990       .  S
O1564      H1577   0.990       .  S
C1588      C1589   1.395       .  A
C1588      C1593   1.407       .  A
C1589      C1590   1.396       .  A
C1589      H1594   1.085       .  S
C1590      C1591   1.398       .  A
C1591      C1592   1.402       .  A
C1591      H1595   1.084       .  S
C1592      C1796   1.486       .  S
C1592      C1593   1.422       .  A
C1593      H1596   1.083       .  S
C1597      C1733   1.486       .  S
C1597      C1598   1.411       .  A
C1597      C1602   1.396       .  A
C1598      C1599   1.412       .  A
C1598      H1603   1.083       .  S
C1599      C1600   1.391       .  A
C1600      C1601   1.405       .  A
C1600      H1604   1.084       .  S
C1601      C1628   1.461       .  S
C1601      C1602   1.403       .  A
C1602      H1605   1.084       .  S
Zr1606     O1607   2.442       .  S
Zr1606     O1608   2.414       .  S
Zr1606     O1609   2.432       .  S
Zr1606     O1612   2.454       .  S
Zr1606     O1614   2.386       .  S
Zr1606     O1615   2.399       .  S
Zr1606     O1616   2.409       .  S
Zr1606     O1617   2.380       .  S
O1607      H1663   0.990       .  S
O1607      H4359   0.991       .  S
O1608      C1628   1.279       .  A
O1609      C1630   1.283       .  A
O1610     Zr1620   2.425       .  S
O1610      C1629   1.279       .  A
O1611     Zr1619   2.452       .  S
O1611      C1630   1.288       .  A
O1612      C1629   1.287       .  A
O1613     Zr1621   2.390       .  S
O1613      C1628   1.274       .  A
O1614     Zr1619   2.395       .  S
O1614     Zr1621   2.381       .  S
O1615     Zr1620   2.387       .  S
O1615     Zr1621   2.371       .  S
O1615      H1650   0.966       .  S
O1616     Zr1619   2.417       .  S
O1616     Zr1636   2.390       .  S
O1616      H1653   0.965       .  S
O1617     Zr1620   2.387       .  S
O1617     Zr1636   2.357       .  S
Zr1618     O1643   2.445       .  S
Zr1618     O1637   2.427       .  S
Zr1618     O1645   2.412       .  S
Zr1618     O1633   2.413       .  S
Zr1618     O1624   2.410       .  S
Zr1618     O1625   2.401       .  S
Zr1618     O1626   2.383       .  S
Zr1618     O1627   2.388       .  S
Zr1619     O1638   2.434       .  S
Zr1619     O1631   2.435       .  S
Zr1619     O1632   2.480       .  S
Zr1619     O1625   2.403       .  S
Zr1619     O1626   2.383       .  S
Zr1620     O1622   2.435       .  S
Zr1620     O1644   2.437       .  S
Zr1620     O1646   2.426       .  S
Zr1620     O1624   2.391       .  S
Zr1620     O1627   2.383       .  S
Zr1621     O1647   2.436       .  S
Zr1621     O1648   2.435       .  S
Zr1621     O1623   2.438       .  S
Zr1621     O1624   2.393       .  S
Zr1621     O1625   2.359       .  S
O1622      H1659   0.990       .  S
O1623      H1654   0.990       .  S
O1623      H1668   0.990       .  S
O1625      H1651   0.963       .  S
O1626     Zr1636   2.391       .  S
O1627     Zr1636   2.386       .  S
O1627      H1652   0.966       .  S
C1629      C1765   1.477       .  S
O1631      H1667   0.990       .  S
O1632      C1634   1.296   1_554  A
O1633      C1634   1.283   1_554  A
C1634      C2428   1.485       .  S
O1635     Zr4324   2.435       .  S
O1635      H1664   0.990       .  S
Zr1636     O4323   2.435   1_455  S
Zr1636     O4327   2.436   1_455  S
Zr1636     O4328   2.438   1_455  S
Zr1636     O1641   2.385       .  S
O1637      C1642   1.278       .  A
O1638      H1655   0.990       .  S
O1638      H1670   0.990   1_455  S
O1639     Zr4324   2.436       .  S
O1639      H1656   0.990       .  S
O1640     Zr4324   2.438       .  S
O1640      H1660   0.990       .  S
O1640      H4357   0.991       .  S
O1641      C1642   1.264       .  A
C1642      C4362   1.456   1_455  S
O1643      H1662   0.991       .  S
O1643      H1666   0.991       .  S
O1644      H1658   0.990       .  S
O1644      H1665   0.990       .  S
O1645      C1649   1.280       .  A
O1646      C1649   1.282       .  A
O1647      H1657   0.990       .  S
O1648      H1661   0.990       .  S
H1669      O4328   0.991   1_455  S
H1671      O4295   0.990       .  S
C1672      C1673   1.394       .  A
C1672      C1677   1.420       .  A
C1673      C1674   1.398       .  A
C1673      H1678   1.084       .  S
C1674      C4330   1.454       .  S
C1674      C1675   1.401       .  A
C1675      C2348   1.393       .  A
C1675      H2351   1.085       .  S
C1676      C1810   1.474       .  S
C1676      C2347   1.393       .  A
C1676      C2349   1.418       .  A
C1677      C2348   1.417       .  A
C1677      H2352   1.084       .  S
H1679      C2347   1.085       .  S
H1680      C2349   1.084       .  S
C1681      C1802   1.484       .  S
C1681      C4374   1.396       .  A
C1682      C1683   1.421       .  A
C1682      H1687   1.083       .  S
C1683      C1938   1.492       .  S
C1683      C3028   1.410       .  A
C1684      C3027   1.409       .  A
C1684      C1685   1.403   1_655  A
C1685      C1713   1.464       .  S
C1685      C1686   1.395       .  A
C1686      C4369   1.396   1_455  A
C1686      H1689   1.086       .  S
Zr1690     O1691   2.443       .  S
Zr1690     O1692   2.465       .  S
Zr1690     O1693   2.465       .  S
Zr1690     O1696   2.426       .  S
Zr1690     O1698   2.389       .  S
Zr1690     O1699   2.395       .  S
Zr1690     O1700   2.433       .  S
Zr1690     O1701   2.416       .  S
O1691      H1747   0.990       .  S
O1691      H1755   0.991       .  S
O1692      C1712   1.289       .  A
O1693      C1714   1.284       .  A
O1694     Zr1704   2.440       .  S
O1694      C1713   1.285       .  A
O1695     Zr1703   2.414       .  S
O1695      C1714   1.275       .  A
O1696      C1713   1.283       .  A
O1697     Zr1705   2.379       .  S
O1697      C1712   1.274       .  A
O1698     Zr1703   2.400       .  S
O1698     Zr1705   2.388       .  S
O1699     Zr1704   2.397       .  S
O1699     Zr1705   2.380       .  S
O1699      H1734   0.966       .  S
O1700     Zr1703   2.395       .  S
O1700     Zr1720   2.382       .  S
O1700      H1737   0.963       .  S
O1701     Zr1704   2.404       .  S
O1701     Zr1720   2.388       .  S
Zr1702     O1727   2.451       .  S
Zr1702     O1721   2.409       .  S
Zr1702     O1729   2.399       .  S
Zr1702     O1717   2.418       .  S
Zr1702     O1708   2.392       .  S
Zr1702     O1709   2.399       .  S
Zr1702     O1710   2.391       .  S
Zr1702     O1711   2.405       .  S
Zr1703     O1722   2.435       .  S
Zr1703     O1715   2.435       .  S
Zr1703     O1716   2.411       .  S
Zr1703     O1709   2.400       .  S
Zr1703     O1710   2.379       .  S
Zr1704     O1706   2.436       .  S
Zr1704     O1728   2.439       .  S
Zr1704     O1730   2.463       .  S
Zr1704     O1708   2.391       .  S
Zr1704     O1711   2.379       .  S
Zr1705     O1731   2.437       .  S
Zr1705     O1732   2.436       .  S
Zr1705     O1707   2.438       .  S
Zr1705     O1708   2.377       .  S
Zr1705     O1709   2.375       .  S
O1706      H1743   0.990       .  S
O1707      H1738   0.990       .  S
O1707      H1752   0.990       .  S
O1709      H1735   0.966       .  S
O1710     Zr1720   2.384       .  S
O1711     Zr1720   2.376       .  S
O1711      H1736   0.966       .  S
C1712      C1760   1.482       .  S
O1715      H1751   0.990       .  S
O1716      C1718   1.279       .  A
O1717      C1718   1.281       .  A
C1718      C2010   1.448       .  S
O1719      H1748   0.990       .  S
Zr1720     O1723   2.439       .  S
Zr1720     O1725   2.410       .  S
O1721      C1726   1.271       .  A
O1722      H1739   0.990       .  S
O1722      H1754   0.990       .  S
O1724      H1744   0.990       .  S
O1725      C1726   1.270       .  A
C1726      C2003   1.459       .  S
O1727      H1746   0.990       .  S
O1727      H1750   0.990       .  S
O1728      H1742   0.990       .  S
O1728      H1749   0.990       .  S
O1729      C1733   1.279       .  A
O1730      C1733   1.292       .  A
O1731      H1741   0.990       .  S
O1732      H1745   0.990       .  S
C1756      C2306   1.487       .  S
C1756      C1757   1.415       .  A
C1756      C1761   1.405       .  A
C1757      C1758   1.410       .  A
C1757      H1762   1.084       .  S
C1758      C1892   1.494       .  S
C1758      C1759   1.399       .  A
C1759      C1760   1.414       .  A
C1759      H1763   1.083       .  S
C1760      C1761   1.403       .  A
C1761      H1764   1.084       .  S
C1765      C1766   1.401       .  A
C1765      C1770   1.403       .  A
C1766      C1767   1.404       .  A
C1766      H1771   1.085       .  S
C1767      C1885   1.459       .  S
C1767      C1768   1.386       .  A
C1768      C1769   1.400       .  A
C1768      H1772   1.083       .  S
C1769      C4486   1.453   1_455  S
C1769      C1770   1.403       .  A
C1770      H4461   1.084       .  S
H1773      C4458   1.084       .  S
Zr1774     O1775   2.443       .  S
Zr1774     O1776   2.385       .  S
Zr1774     O1777   2.411       .  S
Zr1774     O1780   2.391       .  S
Zr1774     O1782   2.395       .  S
Zr1774     O1783   2.400       .  S
Zr1774     O1784   2.418       .  S
Zr1774     O1785   2.397       .  S
O1775      H1831   0.990       .  S
O1775      H1839   0.990       .  S
O1776      C1796   1.273       .  A
O1777      C1798   1.272       .  A
O1778     Zr1788   2.422       .  S
O1778      C1797   1.278       .  A
O1779     Zr1787   2.406       .  S
O1779      C1798   1.267       .  A
O1780      C1797   1.276       .  A
O1781     Zr1789   2.474       .  S
O1781      C1796   1.292       .  A
O1782     Zr1787   2.414       .  S
O1782     Zr1789   2.363       .  S
O1783     Zr1788   2.387       .  S
O1783     Zr1789   2.347       .  S
O1783      H1818   0.966       .  S
O1784     Zr1787   2.410       .  S
O1784     Zr1804   2.378       .  S
O1784      H1821   0.964       .  S
O1785     Zr1788   2.397       .  S
O1785     Zr1804   2.376       .  S
Zr1786     O1811   2.450       .  S
Zr1786     O1805   2.537       .  S
Zr1786     O1813   2.369       .  S
Zr1786     O1801   2.496       .  S
Zr1786     O1793   2.426       .  S
Zr1786     O1794   2.369       .  S
Zr1786     O1795   2.383       .  S
Zr1786     O1792   2.350       .  S
Zr1787     O4494   2.445       .  S
Zr1787     O1799   2.438       .  S
Zr1787     O1800   2.425       .  S
Zr1787     O1793   2.393       .  S
Zr1787     O1794   2.402       .  S
Zr1788     O1790   2.440       .  S
Zr1788     O1812   2.441       .  S
Zr1788     O1814   2.444       .  S
Zr1788     O1795   2.357       .  S
Zr1788     O1792   2.282       .  S
Zr1789     O1815   2.435       .  S
Zr1789     O1791   2.444       .  S
Zr1789     O1793   2.394       .  S
Zr1789     O1792   2.330       .  S
O1790      H1827   0.990       .  S
O1791      H1822   0.990       .  S
O1791      H1836   0.990       .  S
O1793      H1819   0.961       .  S
O1794     Zr1804   2.404       .  S
O1795     Zr1804   2.398       .  S
O1795      H1820   0.963       .  S
C1797      C2008   1.453       .  S
C1798      C4457   1.452       .  S
O1799      H1835   0.990       .  S
O1800      C1802   1.283       .  A
O1801      C1802   1.291       .  A
O1803     Zr1804   2.441       .  S
O1803      H1832   0.990       .  S
Zr1804     O1807   2.434       .  S
Zr1804     O1808   2.441       .  S
Zr1804     O1809   2.359       .  S
O1805      C1810   1.302       .  A
O1806     Zr4475   2.446   1_455  S
O1806      H1823   0.989       .  S
O1806      H1838   0.989       .  S
O1807      H1824   0.990       .  S
O1808      H1828   0.990       .  S
O1808      H1837   0.989       .  S
O1809      C1810   1.268       .  A
O1811      H1834   0.991       .  S
O1812      H1826   0.991       .  S
O1812      H1833   0.990       .  S
O1813      C1817   1.271       .  A
O1814      C1817   1.289       .  A
O1815      H1825   0.990       .  S
O1816      H1829   0.990       .  S
C1840      C1877   1.483       .  S
C1840      C1841   1.424       .  A
C1840      C1845   1.396       .  A
C1841      C1842   1.421       .  A
C1841      H1846   1.083       .  S
C1842      C2066   1.509       .  S
C1842      C4531   1.407       .  A
C1843      C4530   1.407       .  A
C1843      C1844   1.402       .  A
C1843      H1847   1.084       .  S
C1844      C1951   1.463       .  S
C1844      C4533   1.402       .  A
C1845      C4532   1.401   1_455  A
C1845      H1848   1.085       .  S
Zr1849     O1850   2.440       .  S
Zr1849     O1851   2.492       .  S
Zr1849     O1852   2.565       .  S
Zr1849     O1855   2.469       .  S
Zr1849     O1857   2.387       .  S
Zr1849     O1858   2.406       .  S
Zr1849     O1859   2.402       .  S
Zr1849     O1860   2.420       .  S
O1850      H1906   0.990       .  S
O1850      H1914   0.990       .  S
O1851      C1871   1.296       .  A
O1852      C1873   1.311       .  A
O1853     Zr1863   2.470       .  S
O1853      C1872   1.293       .  A
O1854     Zr1862   2.386       .  S
O1854      C1873   1.275       .  A
O1855      C1872   1.294       .  A
O1856     Zr1864   2.358       .  S
O1856      C1871   1.270       .  A
O1857     Zr1862   2.408       .  S
O1857     Zr1864   2.397       .  S
O1858     Zr1863   2.375       .  S
O1858     Zr1864   2.376       .  S
O1858      H1893   0.964       .  S
O1859     Zr1862   2.403       .  S
O1859     Zr1879   2.354       .  S
O1859      H1896   0.962       .  S
O1860     Zr1863   2.407       .  S
O1860     Zr1879   2.381       .  S
Zr1861     O1886   2.432       .  S
Zr1861     O1880   2.474       .  S
Zr1861     O1888   2.425       .  S
Zr1861     O1876   2.520       .  S
Zr1861     O1867   2.414       .  S
Zr1861     O1868   2.399       .  S
Zr1861     O1869   2.379       .  S
Zr1861     O1870   2.402       .  S
Zr1862     O1881   2.436       .  S
Zr1862     O1874   2.436       .  S
Zr1862     O1875   2.410       .  S
Zr1862     O1868   2.390       .  S
Zr1862     O1869   2.397       .  S
Zr1863     O1865   2.436       .  S
Zr1863     O1887   2.438       .  S
Zr1863     O1889   2.479       .  S
Zr1863     O1867   2.399       .  S
Zr1863     O1870   2.373       .  S
Zr1864     O1890   2.434       .  S
Zr1864     O1891   2.437       .  S
Zr1864     O1866   2.439       .  S
Zr1864     O1867   2.385       .  S
Zr1864     O1868   2.350       .  S
O1865      H1902   0.990       .  S
O1866      H1897   0.990       .  S
O1866      H1911   0.990       .  S
O1868      H1894   0.961       .  S
O1869     Zr1879   2.401       .  S
O1870     Zr1879   2.377       .  S
O1870      H1895   0.965       .  S
C1871      C1994   1.469       .  S
C1872      C1985   1.507       .  S
C1873      C1999   1.494       .  S
O1874      H1910   0.990       .  S
O1875      C1877   1.280       .  A
O1876      C1877   1.299       .  A
O1878     Zr1879   2.442       .  S
O1878      H1907   0.990       .  S
Zr1879     O1882   2.437       .  S
Zr1879     O1883   2.440       .  S
Zr1879     O1884   2.361       .  S
O1880      C1885   1.291       .  A
O1881      H1898   0.990       .  S
O1881      H1913   0.990       .  S
O1882      H1899   0.990       .  S
O1883      H1903   0.990       .  S
O1883      H1912   0.989       .  S
O1884      C1885   1.271       .  A
O1886      H1905   0.990       .  S
O1886      H1909   0.989       .  S
O1887      H1901   0.990       .  S
O1887      H1908   0.990       .  S
O1888      C1892   1.283       .  A
O1889      C1892   1.295       .  A
O1890      H1900   0.990       .  S
O1891      H1904   0.990       .  S
Zr1915     O1916   2.440       .  S
Zr1915     O1917   2.501       .  S
Zr1915     O1918   2.535       .  S
Zr1915     O1921   2.495       .  S
Zr1915     O1923   2.400       .  S
Zr1915     O1924   2.404       .  S
Zr1915     O1925   2.442       .  S
Zr1915     O1926   2.414       .  S
O1916      H1972   0.990       .  S
O1916      H1980   0.990       .  S
O1917      C1937   1.299       .  A
O1918      C1939   1.295       .  A
O1919     Zr1929   2.440       .  S
O1919      C1938   1.285       .  A
O1920     Zr1928   2.386       .  S
O1920      C1939   1.264       .  A
O1921      C1938   1.299       .  A
O1922     Zr1930   2.396       .  S
O1922      C1937   1.276       .  A
O1923     Zr1928   2.411       .  S
O1923     Zr1930   2.379       .  S
O1924     Zr1929   2.386       .  S
O1924     Zr1930   2.385       .  S
O1924      H1959   0.964       .  S
O1925     Zr1928   2.408       .  S
O1925     Zr1945   2.371       .  S
O1925      H1962   0.964       .  S
O1926     Zr1929   2.396       .  S
O1926     Zr1945   2.385       .  S
Zr1927     O1952   2.446       .  S
Zr1927     O1946   2.452       .  S
Zr1927     O1954   2.400       .  S
Zr1927     O1942   2.434       .  S
Zr1927     O1933   2.403       .  S
Zr1927     O1934   2.416       .  S
Zr1927     O1935   2.372       .  S
Zr1927     O1936   2.390       .  S
Zr1928     O1947   2.438       .  S
Zr1928     O1940   2.430       .  S
Zr1928     O1941   2.410       .  S
Zr1928     O1934   2.389       .  S
Zr1928     O1935   2.385       .  S
Zr1929     O1931   2.436       .  S
Zr1929     O1953   2.439       .  S
Zr1929     O1955   2.451       .  S
Zr1929     O1933   2.381       .  S
Zr1929     O1936   2.390       .  S
Zr1930     O1956   2.437       .  S
Zr1930     O1957   2.438       .  S
Zr1930     O1932   2.439       .  S
Zr1930     O1933   2.382       .  S
Zr1930     O1934   2.387       .  S
O1931      H1968   0.990       .  S
O1932      H1963   0.990       .  S
O1932      H1977   0.990       .  S
O1934      H1960   0.964       .  S
O1935     Zr1945   2.390       .  S
O1936     Zr1945   2.384       .  S
O1936      H1961   0.966       .  S
C1937      C1983   1.494       .  S
O1940      H1976   0.991       .  S
O1941      C1943   1.278       .  A
O1942      C1943   1.281       .  A
C1943      C2012   1.451       .  S
O1944     Zr4633   2.442   1_455  S
O1944      H1973   0.990       .  S
Zr1945     O4632   2.442       .  S
Zr1945     O1948   2.437       .  S
Zr1945     O1949   2.442       .  S
Zr1945     O1950   2.386       .  S
O1946      C1951   1.284       .  A
O1947      H1964   0.990       .  S
O1947      H1979   0.988       .  S
O1948      H1965   0.990       .  S
O1949      H4657   0.990       .  S
O1949      H1978   0.989       .  S
O1950      C1951   1.275       .  A
O1952      H1971   0.991       .  S
O1952      H1975   0.990       .  S
O1953      H1967   0.990       .  S
O1953      H1974   0.990       .  S
O1954      C1958   1.277       .  A
O1955      C1958   1.290       .  A
O1956      H1966   0.991       .  S
O1957      H1970   0.990       .  S
H1969      O4637   0.990       .  S
C1981      C1982   1.404       .  A
C1981      C1986   1.412       .  A
C1982      C1983   1.399       .  A
C1982      H1987   1.084       .  S
C1983      C1984   1.423       .  A
C1984      C1985   1.414       .  A
C1984      H1988   1.083       .  S
C1985      C1986   1.408       .  A
C1986      H1989   1.084       .  S
C1990      C2217   1.498       .  S
C1990      C1991   1.401       .  A
C1990      C1995   1.410       .  A
C1991      C1992   1.417       .  A
C1992      C1993   1.397       .  A
C1993      C1994   1.383       .  A
C1993      H1997   1.084       .  S
C1994      C1995   1.413       .  A
C1995      H1998   1.084       .  S
C1999      C2000   1.431       .  A
C1999      C2004   1.393       .  A
C2000      C2001   1.428       .  A
C2000      H2005   1.083       .  S
C2001      C2002   1.399       .  A
C2004      H2007   1.085       .  S
C2008      C2009   1.397       .  A
C2008      C2013   1.402       .  A
C2009      C2010   1.390       .  A
C2009      H2014   1.085       .  S
C2010      C2011   1.399       .  A
C2011      C2012   1.398       .  A
C2011      H2015   1.085       .  S
C2012      C2013   1.391       .  A
C2013      H2016   1.084       .  S
C2017      C2087   1.495       .  S
C2017      C4710   1.424   1_455  A
C2018      C2019   1.395       .  A
C2018      H2023   1.086       .  S
C2019      C2302   1.473       .  S
C2019      C4708   1.403   1_455  A
C2020      C4707   1.403       .  A
C2020      H2024   1.084       .  S
C2021      C2218   1.499       .  S
C2021      C2022   1.428       .  A
C2022      C4705   1.424       .  A
C2022      H2025   1.083       .  S
C2026      C2068   1.471       .  S
C2026      C2027   1.408       .  A
C2026      C2031   1.397       .  A
C2027      C2028   1.404       .  A
C2027      H2032   1.084       .  S
C2028      C2237   1.467       .  S
C2028      C2029   1.400       .  A
C2029      C2030   1.399       .  A
C2029      H2033   1.085       .  S
C2030      C2321   1.457       .  S
C2030      C2031   1.398       .  A
C2031      H2034   1.085       .  S
C2035      C2630   1.475       .  S
C2036      C2037   1.396       .  A
C2037      C2216   1.468       .  S
C2037      C2038   1.409       .  A
C2038      C2039   1.394       .  A
C2038      H2042   1.084       .  S
C2039      C2171   1.467       .  S
C2039      C2040   1.404       .  A
Zr2044     O2045   2.441       .  S
Zr2044     O2046   2.465       .  S
Zr2044     O2047   2.431       .  S
Zr2044     O2050   2.491       .  S
Zr2044     O2052   2.403       .  S
Zr2044     O2053   2.406       .  S
Zr2044     O2054   2.441       .  S
Zr2044     O2055   2.410       .  S
O2045      H2101   0.990       .  S
O2045      H2109   0.990       .  S
O2046      C2066   1.287       .  A
O2047      C2068   1.283       .  A
O2048     Zr2058   2.406       .  S
O2048      C2067   1.269       .  A
O2049     Zr2057   2.441       .  S
O2049      C2068   1.283       .  A
O2050      C2067   1.289       .  A
O2051     Zr2059   2.458       .  S
O2051      C2066   1.289       .  A
O2052     Zr2057   2.402       .  S
O2052     Zr2059   2.361       .  S
O2053     Zr2058   2.425       .  S
O2053     Zr2059   2.360       .  S
O2053      H2088   0.966       .  S
O2054     Zr2057   2.418       .  S
O2054     Zr2074   2.372       .  S
O2054      H2091   0.964       .  S
O2055     Zr2058   2.383       .  S
O2055     Zr2074   2.373       .  S
Zr2056     O4769   2.447       .  S
Zr2056     O2075   2.590       .  S
Zr2056     O2083   2.510       .  S
Zr2056     O2071   2.425       .  S
Zr2056     O2063   2.442       .  S
Zr2056     O2064   2.360       .  S
Zr2056     O2065   2.388       .  S
Zr2056     O2062   2.335       .  S
Zr2057     O2076   2.434       .  S
Zr2057     O2069   2.434       .  S
Zr2057     O2070   2.486       .  S
Zr2057     O2063   2.398       .  S
Zr2057     O2064   2.369       .  S
Zr2058     O2082   2.443   1_565  S
Zr2058     O2084   2.419       .  S
Zr2058     O2065   2.404       .  S
Zr2058     O2062   2.273       .  S
Zr2059     O2085   2.437       .  S
Zr2059     O4774   2.436   1_455  S
Zr2059     O4749   2.442   1_455  S
Zr2059     O2063   2.380       .  S
Zr2059     O2062   2.328       .  S
O2060      H2097   0.990       .  S
O2061     Zr4747   2.441       .  S
O2061      H2092   0.990       .  S
O2061      H4794   0.990       .  S
O2063      H2089   0.961       .  S
O2064     Zr2074   2.389       .  S
O2065     Zr2074   2.398       .  S
O2065      H2090   0.965       .  S
O2069      H2105   0.990       .  S
O2070      C2072   1.297       .  A
O2071      C2072   1.284       .  A
C2072      C4811   1.491   1_455  S
O2073     Zr2074   2.437       .  S
O2073      H2102   0.990   1_565  S
Zr2074     O2077   2.440       .  S
Zr2074     O2079   2.373       .  S
O2075      C2080   1.314       .  A
O2076      H2093   0.990       .  S
O2076      H2108   0.990       .  S
O2077      H2094   0.991       .  S
O2078      H2098   0.990       .  S
O2078      H2107   0.989       .  S
O2079      C2080   1.268       .  A
C2080      C2673   1.503       .  S
O2081     Zr4744   2.447       .  S
O2081      H2100   0.990       .  S
O2081      H2104   0.990       .  S
O2082      H2096   0.991       .  S
O2082      H2103   0.990       .  S
O2083      C2087   1.296       .  A
O2084      C2087   1.283       .  A
O2085      H4783   0.991   1_455  S
O2086     Zr4747   2.435       .  S
O2086      H2099   0.990       .  S
H2095      O4773   0.991       .  S
H2106      O4749   0.990       .  S
C2110      C2386   1.488       .  S
C2110      C2111   1.399   1_556  A
C2110      C2115   1.404       .  A
C2111      H2116   1.083       .  S
C2112      C2156   1.496       .  S
C2112      C2113   1.413       .  A
C2113      C2114   1.415       .  A
C2113      H2117   1.082       .  S
C2115      H2118   1.084       .  S
C2119      C2611   1.513       .  S
C2119      C2120   1.417       .  A
C2119      C2124   1.407       .  A
C2120      C2121   1.417       .  A
C2120      H2125   1.084       .  S
C2121      C2151   1.484       .  S
C2121      C2122   1.400       .  A
C2122      C2123   1.412       .  A
C2122      H2126   1.084       .  S
C2123      C4760   1.490       .  S
C2123      C2124   1.422       .  A
C2124      H2127   1.083       .  S
Zr2128     O2129   2.440       .  S
Zr2128     O2130   2.480       .  S
Zr2128     O2131   2.471       .  S
Zr2128     O2134   2.547       .  S
Zr2128     O2136   2.403       .  S
Zr2128     O2137   2.392       .  S
Zr2128     O2138   2.427       .  S
Zr2128     O2139   2.377       .  S
O2129      H2185   0.990       .  S
O2129      H2193   0.990       .  S
O2130      C2150   1.295       .  A
O2131      C2152   1.291       .  A
O2132     Zr2142   2.369       .  S
O2132      C2151   1.273       .  A
O2133     Zr2141   2.424       .  S
O2133      C2152   1.286       .  A
O2134      C2151   1.307       .  A
O2135     Zr2143   2.400       .  S
O2135      C2150   1.275       .  A
O2136     Zr2141   2.393       .  S
O2136     Zr2143   2.378       .  S
O2137     Zr2142   2.394       .  S
O2137     Zr2143   2.386       .  S
O2137      H2172   0.966       .  S
O2138     Zr2141   2.420       .  S
O2138     Zr2158   2.378       .  S
O2138      H2175   0.963       .  S
O2139     Zr2142   2.368       .  S
O2139     Zr2158   2.358       .  S
Zr2140     O2165   2.445       .  S
Zr2140     O2159   2.491       .  S
Zr2140     O2167   2.496       .  S
Zr2140     O2155   2.420       .  S
Zr2140     O2146   2.401       .  S
Zr2140     O2147   2.430       .  S
Zr2140     O2148   2.367       .  S
Zr2140     O2149   2.381       .  S
Zr2141     O2160   2.435       .  S
Zr2141     O2153   2.436       .  S
Zr2141     O2154   2.481       .  S
Zr2141     O2147   2.398       .  S
Zr2141     O2148   2.373       .  S
Zr2142     O2144   2.437       .  S
Zr2142     O2166   2.438       .  S
Zr2142     O2168   2.371       .  S
Zr2142     O2146   2.374       .  S
Zr2142     O2149   2.404       .  S
Zr2143     O2169   2.436       .  S
Zr2143     O2170   2.436       .  S
Zr2143     O2145   2.438       .  S
Zr2143     O2146   2.387       .  S
Zr2143     O2147   2.384       .  S
O2144      H2181   0.990       .  S
O2145      H2176   0.991       .  S
O2145      H2190   0.990       .  S
O2147      H2173   0.964       .  S
O2148     Zr2158   2.375       .  S
O2149     Zr2158   2.392       .  S
O2149      H2174   0.966       .  S
C2150      C2344   1.488       .  S
C2152      C2260   1.484       .  S
O2153      H2189   0.990       .  S
O2154      C2156   1.293       .  A
O2155      C2156   1.285       .  A
O2157     Zr2158   2.439       .  S
O2157      H2186   0.990       .  S
Zr2158     O2161   2.441       .  S
Zr2158     O2162   2.440       .  S
Zr2158     O2163   2.370       .  S
O2159      C2164   1.295       .  A
O2160      H2177   0.990       .  S
O2160      H2192   0.990       .  S
O2161      H2178   0.990       .  S
O2162      H2182   0.990       .  S
O2162      H2191   0.990       .  S
O2163      C2164   1.272       .  A
C2164      C2271   1.483       .  S
O2165      H2184   0.991       .  S
O2165      H2188   0.990       .  S
O2166      H2180   0.990       .  S
O2166      H2187   0.990       .  S
O2167      C2171   1.293       .  A
O2168      C2171   1.272       .  A
O2169      H2179   0.990       .  S
O2170      H2183   0.990       .  S
Zr2194     O2195   2.440       .  S
Zr2194     O2196   2.446       .  S
Zr2194     O2197   2.505       .  S
Zr2194     O2200   2.512       .  S
Zr2194     O2202   2.398       .  S
Zr2194     O2203   2.405       .  S
Zr2194     O2204   2.414       .  S
Zr2194     O2205   2.401       .  S
O2195      H2251   0.990       .  S
O2195      H2259   0.990       .  S
O2196      C2216   1.287       .  A
O2197      C2218   1.298       .  A
O2198     Zr2208   2.399       .  S
O2198      C2217   1.270       .  A
O2199     Zr2207   2.442       .  S
O2199      C2218   1.285       .  A
O2200      C2217   1.296       .  A
O2201     Zr2209   2.369       .  S
O2201      C2216   1.272       .  A
O2202     Zr2207   2.397       .  S
O2202     Zr2209   2.387       .  S
O2203     Zr2208   2.388       .  S
O2203     Zr2209   2.369       .  S
O2203      H2238   0.966       .  S
O2204     Zr2207   2.411       .  S
O2204     Zr2224   2.396       .  S
O2204      H2241   0.965       .  S
O2205     Zr2208   2.395       .  S
O2205     Zr2224   2.369       .  S
Zr2206     O2231   2.444       .  S
Zr2206     O2225   2.441       .  S
Zr2206     O2233   2.462       .  S
Zr2206     O2221   2.424       .  S
Zr2206     O2212   2.402       .  S
Zr2206     O2213   2.418       .  S
Zr2206     O2214   2.388       .  S
Zr2206     O2215   2.388       .  S
Zr2207     O2226   2.435       .  S
Zr2207     O2219   2.435       .  S
Zr2207     O2220   2.460       .  S
Zr2207     O2213   2.400       .  S
Zr2207     O2214   2.390       .  S
Zr2208     O2210   2.434       .  S
Zr2208     O2232   2.437       .  S
Zr2208     O2234   2.404       .  S
Zr2208     O2212   2.389       .  S
Zr2208     O2215   2.378       .  S
Zr2209     O2235   2.436       .  S
Zr2209     O2236   2.437       .  S
Zr2209     O2211   2.438       .  S
Zr2209     O2212   2.378       .  S
Zr2209     O2213   2.363       .  S
O2210      H2247   0.990       .  S
O2211      H2242   0.990       .  S
O2211      H2256   0.990       .  S
O2213      H2239   0.964       .  S
O2214     Zr2224   2.384       .  S
O2215     Zr2224   2.396       .  S
O2215      H2240   0.966       .  S
O2219      H2255   0.990       .  S
O2220      C2222   1.292       .  A
O2221      C2222   1.284       .  A
C2222      C2653   1.481       .  S
O2223      H2252   0.990       .  S
Zr2224     O2229   2.378   1_565  S
O2225      C2230   1.279       .  A
O2226      H2243   0.990       .  S
O2226      H2258   0.990   1_565  S
O2227      H2244   0.990       .  S
O2228      H2248   0.990       .  S
O2229      C2230   1.267   1_545  A
O2231      H2250   0.990       .  S
O2231      H2254   0.991       .  S
O2232      H2246   0.990       .  S
O2232      H2253   0.990       .  S
O2233      C2237   1.288       .  A
O2234      C2237   1.278       .  A
O2235      H2245   0.990       .  S
O2236      H2249   0.990       .  S
C2260      C2261   1.396       .  A
C2260      C2265   1.407       .  A
C2261      C2262   1.396       .  A
C2261      H2266   1.085       .  S
C2262      C2263   1.398       .  A
C2263      C2264   1.401       .  A
C2263      H2267   1.084       .  S
C2264      C2468   1.485       .  S
C2264      C2265   1.423       .  A
C2265      H2268   1.083       .  S
C2269      C2405   1.486       .  S
C2269      C2270   1.411       .  A
C2269      C2274   1.396       .  A
C2270      C2271   1.412       .  A
C2270      H2275   1.083       .  S
C2271      C2272   1.390       .  A
C2272      C2273   1.405       .  A
C2272      H2276   1.084       .  S
C2273      C2300   1.460       .  S
C2273      C2274   1.403       .  A
C2274      H2277   1.084       .  S
Zr2278     O2279   2.442       .  S
Zr2278     O2280   2.412       .  S
Zr2278     O2281   2.436       .  S
Zr2278     O2284   2.453       .  S
Zr2278     O2286   2.387       .  S
Zr2278     O2287   2.399       .  S
Zr2278     O2288   2.409       .  S
Zr2278     O2289   2.381       .  S
O2279      H2335   0.990       .  S
O2279      H5031   0.990       .  S
O2280      C2300   1.279       .  A
O2281      C2302   1.284       .  A
O2282     Zr2292   2.425       .  S
O2282      C2301   1.279       .  A
O2283     Zr2291   2.453       .  S
O2283      C2302   1.288       .  A
O2284      C2301   1.287       .  A
O2285     Zr2293   2.390       .  S
O2285      C2300   1.274       .  A
O2286     Zr2291   2.396       .  S
O2286     Zr2293   2.382       .  S
O2287     Zr2292   2.386       .  S
O2287     Zr2293   2.370       .  S
O2287      H2322   0.966       .  S
O2288     Zr2291   2.417       .  S
O2288     Zr2308   2.390       .  S
O2288      H2325   0.965       .  S
O2289     Zr2292   2.387       .  S
O2289     Zr2308   2.357       .  S
Zr2290     O2315   2.445       .  S
Zr2290     O2309   2.428       .  S
Zr2290     O2317   2.410       .  S
Zr2290     O2305   2.414       .  S
Zr2290     O2296   2.409       .  S
Zr2290     O2297   2.401       .  S
Zr2290     O2298   2.383       .  S
Zr2290     O2299   2.390       .  S
Zr2291     O2310   2.434       .  S
Zr2291     O2303   2.434       .  S
Zr2291     O2304   2.482       .  S
Zr2291     O2297   2.402       .  S
Zr2291     O2298   2.383       .  S
Zr2292     O2294   2.434       .  S
Zr2292     O2316   2.437       .  S
Zr2292     O2318   2.424       .  S
Zr2292     O2296   2.389       .  S
Zr2292     O2299   2.384       .  S
Zr2293     O2319   2.437       .  S
Zr2293     O2320   2.435       .  S
Zr2293     O2295   2.438       .  S
Zr2293     O2296   2.390       .  S
Zr2293     O2297   2.361       .  S
O2294      H2331   0.990       .  S
O2295      H2326   0.990       .  S
O2295      H2340   0.990       .  S
O2297      H2323   0.963       .  S
O2298     Zr2308   2.393       .  S
O2299     Zr2308   2.386       .  S
O2299      H2324   0.966       .  S
C2301      C2437   1.478       .  S
O2303      H2339   0.990       .  S
O2304      C2306   1.296       .  A
O2305      C2306   1.283       .  A
O2307     Zr4996   2.435       .  S
O2307      H2336   0.990       .  S
Zr2308     O4995   2.435   1_455  S
Zr2308     O4999   2.435   1_455  S
Zr2308     O5000   2.438   1_455  S
Zr2308     O2313   2.386       .  S
O2309      C2314   1.278       .  A
O2310      H2327   0.990       .  S
O2310      H2342   0.990   1_455  S
O2311     Zr4996   2.436       .  S
O2311      H2328   0.990       .  S
O2312     Zr4996   2.437       .  S
O2312      H2332   0.990       .  S
O2312      H5029   0.991       .  S
O2313      C2314   1.264       .  A
C2314      C5034   1.457   1_455  S
O2315      H2334   0.991       .  S
O2315      H2338   0.991       .  S
O2316      H2330   0.990       .  S
O2316      H2337   0.990       .  S
O2317      C2321   1.280       .  A
O2318      C2321   1.282       .  A
O2319      H2329   0.990       .  S
O2320      H2333   0.990       .  S
H2341      O5000   0.991   1_455  S
H2343      O4967   0.990       .  S
C2344      C2345   1.394       .  A
C2344      C2349   1.421       .  A
C2345      C2346   1.398       .  A
C2345      H2350   1.084       .  S
C2346      C5002   1.455       .  S
C2346      C2347   1.401       .  A
C2348      C2482   1.472   1_554  S
C2353      C2474   1.483       .  S
C2353      C5046   1.395       .  A
C2354      C2355   1.421       .  A
C2354      H2359   1.083       .  S
C2355      C2610   1.491       .  S
C2355      C3700   1.409       .  A
C2356      C3699   1.409       .  A
C2356      C2357   1.402   1_655  A
C2357      C2385   1.463       .  S
C2357      C2358   1.395       .  A
C2358      C5041   1.395   1_455  A
C2358      H2361   1.086       .  S
Zr2362     O2363   2.443       .  S
Zr2362     O2364   2.466       .  S
Zr2362     O2365   2.467       .  S
Zr2362     O2368   2.426       .  S
Zr2362     O2370   2.388       .  S
Zr2362     O2371   2.396       .  S
Zr2362     O2372   2.431       .  S
Zr2362     O2373   2.417       .  S
O2363      H2419   0.990       .  S
O2363      H2427   0.991       .  S
O2364      C2384   1.289       .  A
O2365      C2386   1.285       .  A
O2366     Zr2376   2.437       .  S
O2366      C2385   1.285       .  A
O2367     Zr2375   2.415       .  S
O2367      C2386   1.275       .  A
O2368      C2385   1.283       .  A
O2369     Zr2377   2.380       .  S
O2369      C2384   1.274       .  A
O2370     Zr2375   2.400       .  S
O2370     Zr2377   2.387       .  S
O2371     Zr2376   2.399       .  S
O2371     Zr2377   2.380       .  S
O2371      H2406   0.966       .  S
O2372     Zr2375   2.395       .  S
O2372     Zr2392   2.383       .  S
O2372      H2409   0.963       .  S
O2373     Zr2376   2.404       .  S
O2373     Zr2392   2.389       .  S
Zr2374     O2399   2.450       .  S
Zr2374     O2393   2.406       .  S
Zr2374     O2401   2.398       .  S
Zr2374     O2389   2.420       .  S
Zr2374     O2380   2.392       .  S
Zr2374     O2381   2.398       .  S
Zr2374     O2382   2.391       .  S
Zr2374     O2383   2.407       .  S
Zr2375     O2394   2.435       .  S
Zr2375     O2387   2.436       .  S
Zr2375     O2388   2.413       .  S
Zr2375     O2381   2.400       .  S
Zr2375     O2382   2.381       .  S
Zr2376     O2378   2.436       .  S
Zr2376     O2400   2.439       .  S
Zr2376     O2402   2.463       .  S
Zr2376     O2380   2.390       .  S
Zr2376     O2383   2.379       .  S
Zr2377     O2403   2.437       .  S
Zr2377     O2404   2.436       .  S
Zr2377     O2379   2.437       .  S
Zr2377     O2380   2.376       .  S
Zr2377     O2381   2.374       .  S
O2378      H2415   0.990       .  S
O2379      H2410   0.990       .  S
O2379      H2424   0.990       .  S
O2381      H2407   0.966       .  S
O2382     Zr2392   2.384       .  S
O2383     Zr2392   2.375       .  S
O2383      H2408   0.966       .  S
C2384      C2432   1.482       .  S
O2387      H2423   0.990       .  S
O2388      C2390   1.280       .  A
O2389      C2390   1.282       .  A
C2390      C2682   1.450       .  S
O2391      H2420   0.990       .  S
Zr2392     O2395   2.439       .  S
Zr2392     O2397   2.412       .  S
O2393      C2398   1.271       .  A
O2394      H2411   0.990       .  S
O2394      H2426   0.990       .  S
O2396      H2416   0.990       .  S
O2397      C2398   1.270       .  A
C2398      C2675   1.458       .  S
O2399      H2418   0.990       .  S
O2399      H2422   0.990       .  S
O2400      H2414   0.990       .  S
O2400      H2421   0.990       .  S
O2401      C2405   1.279       .  A
O2402      C2405   1.293       .  A
O2403      H2413   0.990       .  S
O2404      H2417   0.990       .  S
C2428      C2429   1.414       .  A
C2428      C2433   1.404       .  A
C2429      C2430   1.410       .  A
C2429      H2434   1.084       .  S
C2430      C2564   1.493       .  S
C2430      C2431   1.399       .  A
C2431      C2432   1.414       .  A
C2431      H2435   1.083       .  S
C2432      C2433   1.403       .  A
C2433      H2436   1.084       .  S
C2437      C2438   1.402       .  A
C2437      C2442   1.403       .  A
C2438      C2439   1.405       .  A
C2438      H2443   1.085       .  S
C2439      C2557   1.460       .  S
C2439      C2440   1.386       .  A
C2440      C2441   1.400       .  A
C2440      H2444   1.083       .  S
C2441      C5158   1.453   1_455  S
C2441      C2442   1.403       .  A
C2442      H5133   1.084       .  S
H2445      C5130   1.084       .  S
Zr2446     O2447   2.442       .  S
Zr2446     O2448   2.381       .  S
Zr2446     O2449   2.412       .  S
Zr2446     O2452   2.394       .  S
Zr2446     O2454   2.395       .  S
Zr2446     O2455   2.401       .  S
Zr2446     O2456   2.416       .  S
Zr2446     O2457   2.393       .  S
O2447      H2503   0.990       .  S
O2447      H2511   0.990       .  S
O2448      C2468   1.272       .  A
O2449      C2470   1.272       .  A
O2450     Zr2460   2.423       .  S
O2450      C2469   1.278       .  A
O2451     Zr2459   2.405       .  S
O2451      C2470   1.267       .  A
O2452      C2469   1.276       .  A
O2453     Zr2461   2.475       .  S
O2453      C2468   1.293       .  A
O2454     Zr2459   2.414       .  S
O2454     Zr2461   2.363       .  S
O2455     Zr2460   2.386       .  S
O2455     Zr2461   2.348       .  S
O2455      H2490   0.966       .  S
O2456     Zr2459   2.408       .  S
O2456     Zr2476   2.376       .  S
O2456      H2493   0.964       .  S
O2457     Zr2460   2.397       .  S
O2457     Zr2476   2.375       .  S
Zr2458     O2483   2.450       .  S
Zr2458     O2477   2.532       .  S
Zr2458     O2485   2.368       .  S
Zr2458     O2473   2.493       .  S
Zr2458     O2465   2.425       .  S
Zr2458     O2466   2.370       .  S
Zr2458     O2467   2.385       .  S
Zr2458     O2464   2.348       .  S
Zr2459     O5166   2.446       .  S
Zr2459     O2471   2.438       .  S
Zr2459     O2472   2.423       .  S
Zr2459     O2465   2.394       .  S
Zr2459     O2466   2.402       .  S
Zr2460     O2462   2.439       .  S
Zr2460     O2484   2.442       .  S
Zr2460     O2486   2.446       .  S
Zr2460     O2467   2.360       .  S
Zr2460     O2464   2.281       .  S
Zr2461     O2487   2.436       .  S
Zr2461     O2463   2.443       .  S
Zr2461     O2465   2.394       .  S
Zr2461     O2464   2.329       .  S
O2462      H2499   0.990       .  S
O2463      H2494   0.990       .  S
O2463      H2508   0.990       .  S
O2465      H2491   0.961       .  S
O2466     Zr2476   2.404       .  S
O2467     Zr2476   2.400       .  S
O2467      H2492   0.963       .  S
C2469      C2680   1.455       .  S
C2470      C5129   1.452       .  S
O2471      H2507   0.990       .  S
O2472      C2474   1.283       .  A
O2473      C2474   1.291       .  A
O2475     Zr2476   2.443       .  S
O2475      H2504   0.990       .  S
Zr2476     O2479   2.434       .  S
Zr2476     O2480   2.441       .  S
Zr2476     O2481   2.357       .  S
O2477      C2482   1.301       .  A
O2478     Zr5147   2.445   1_455  S
O2478      H2495   0.989       .  S
O2478      H2510   0.989       .  S
O2479      H2496   0.990       .  S
O2480      H2500   0.990       .  S
O2480      H2509   0.990       .  S
O2481      C2482   1.268       .  A
O2483      H2506   0.991       .  S
O2484      H2498   0.991       .  S
O2484      H2505   0.990       .  S
O2485      C2489   1.270       .  A
O2486      C2489   1.289       .  A
O2487      H2497   0.990       .  S
O2488      H2501   0.990       .  S
C2512      C2549   1.482       .  S
C2512      C2513   1.424       .  A
C2512      C2517   1.395       .  A
C2513      C2514   1.421       .  A
C2513      H2518   1.083       .  S
C2514      C5203   1.407       .  A
C2515      C5202   1.408       .  A
C2515      C2516   1.402       .  A
C2515      H2519   1.084       .  S
C2516      C2623   1.463       .  S
C2516      C5205   1.402       .  A
C2517      C5204   1.401   1_455  A
C2517      H2520   1.085       .  S
Zr2521     O2522   2.441       .  S
Zr2521     O2523   2.491       .  S
Zr2521     O2524   2.561       .  S
Zr2521     O2527   2.468       .  S
Zr2521     O2529   2.387       .  S
Zr2521     O2530   2.404       .  S
Zr2521     O2531   2.401       .  S
Zr2521     O2532   2.419       .  S
O2522      H2578   0.990       .  S
O2522      H2586   0.990       .  S
O2523      C2543   1.296       .  A
O2524      C2545   1.310       .  A
O2525     Zr2535   2.473       .  S
O2525      C2544   1.293       .  A
O2526     Zr2534   2.388       .  S
O2526      C2545   1.275       .  A
O2527      C2544   1.294       .  A
O2528     Zr2536   2.358       .  S
O2528      C2543   1.270       .  A
O2529     Zr2534   2.409       .  S
O2529     Zr2536   2.397       .  S
O2530     Zr2535   2.374       .  S
O2530     Zr2536   2.375       .  S
O2530      H2565   0.964       .  S
O2531     Zr2534   2.403       .  S
O2531     Zr2551   2.352       .  S
O2531      H2568   0.962       .  S
O2532     Zr2535   2.408       .  S
O2532     Zr2551   2.382       .  S
Zr2533     O2558   2.433       .  S
Zr2533     O2552   2.475       .  S
Zr2533     O2560   2.423       .  S
Zr2533     O2548   2.520       .  S
Zr2533     O2539   2.415       .  S
Zr2533     O2540   2.399       .  S
Zr2533     O2541   2.378       .  S
Zr2533     O2542   2.402       .  S
Zr2534     O2553   2.436       .  S
Zr2534     O2546   2.436       .  S
Zr2534     O2547   2.409       .  S
Zr2534     O2540   2.391       .  S
Zr2534     O2541   2.396       .  S
Zr2535     O2537   2.435       .  S
Zr2535     O2559   2.437       .  S
Zr2535     O2561   2.480       .  S
Zr2535     O2539   2.401       .  S
Zr2535     O2542   2.371       .  S
Zr2536     O2562   2.434       .  S
Zr2536     O2563   2.438       .  S
Zr2536     O2538   2.439       .  S
Zr2536     O2539   2.386       .  S
Zr2536     O2540   2.349       .  S
O2537      H2574   0.990       .  S
O2538      H2569   0.990       .  S
O2538      H2583   0.990       .  S
O2540      H2566   0.961       .  S
O2541     Zr2551   2.399       .  S
O2542     Zr2551   2.377       .  S
O2542      H2567   0.965       .  S
C2543      C2666   1.469       .  S
C2544      C2657   1.509       .  S
C2545      C2671   1.493       .  S
O2546      H2582   0.990       .  S
O2547      C2549   1.280       .  A
O2548      C2549   1.299       .  A
O2550     Zr2551   2.442       .  S
O2550      H2579   0.990       .  S
Zr2551     O2554   2.436       .  S
Zr2551     O2555   2.440       .  S
Zr2551     O2556   2.360       .  S
O2552      C2557   1.291       .  A
O2553      H2570   0.990       .  S
O2553      H2585   0.990       .  S
O2554      H2571   0.990       .  S
O2555      H2575   0.990       .  S
O2555      H2584   0.989       .  S
O2556      C2557   1.271       .  A
O2558      H2577   0.991       .  S
O2558      H2581   0.989       .  S
O2559      H2573   0.990       .  S
O2559      H2580   0.990       .  S
O2560      C2564   1.283       .  A
O2561      C2564   1.295       .  A
O2562      H2572   0.990       .  S
O2563      H2576   0.990       .  S
Zr2587     O2588   2.440       .  S
Zr2587     O2589   2.502       .  S
Zr2587     O2590   2.532       .  S
Zr2587     O2593   2.495       .  S
Zr2587     O2595   2.400       .  S
Zr2587     O2596   2.402       .  S
Zr2587     O2597   2.445       .  S
Zr2587     O2598   2.414       .  S
O2588      H2644   0.990       .  S
O2588      H2652   0.990       .  S
O2589      C2609   1.299       .  A
O2590      C2611   1.294       .  A
O2591     Zr2601   2.439       .  S
O2591      C2610   1.285       .  A
O2592     Zr2600   2.385       .  S
O2592      C2611   1.264       .  A
O2593      C2610   1.298       .  A
O2594     Zr2602   2.397       .  S
O2594      C2609   1.277       .  A
O2595     Zr2600   2.413       .  S
O2595     Zr2602   2.379       .  S
O2596     Zr2601   2.386       .  S
O2596     Zr2602   2.384       .  S
O2596      H2631   0.964       .  S
O2597     Zr2600   2.410       .  S
O2597     Zr2617   2.374       .  S
O2597      H2634   0.964       .  S
O2598     Zr2601   2.394       .  S
O2598     Zr2617   2.384       .  S
Zr2599     O2624   2.446       .  S
Zr2599     O2618   2.453       .  S
Zr2599     O2626   2.400       .  S
Zr2599     O2614   2.435       .  S
Zr2599     O2605   2.402       .  S
Zr2599     O2606   2.415       .  S
Zr2599     O2607   2.372       .  S
Zr2599     O2608   2.390       .  S
Zr2600     O2619   2.439       .  S
Zr2600     O2612   2.430       .  S
Zr2600     O2613   2.412       .  S
Zr2600     O2606   2.389       .  S
Zr2600     O2607   2.386       .  S
Zr2601     O2603   2.436       .  S
Zr2601     O2625   2.440       .  S
Zr2601     O2627   2.449       .  S
Zr2601     O2605   2.380       .  S
Zr2601     O2608   2.391       .  S
Zr2602     O2628   2.437       .  S
Zr2602     O2629   2.437       .  S
Zr2602     O2604   2.438       .  S
Zr2602     O2605   2.379       .  S
Zr2602     O2606   2.387       .  S
O2603      H2640   0.990       .  S
O2604      H2635   0.990       .  S
O2604      H2649   0.990       .  S
O2606      H2632   0.964       .  S
O2607     Zr2617   2.390       .  S
O2608     Zr2617   2.383       .  S
O2608      H2633   0.966       .  S
C2609      C2655   1.495       .  S
O2612      H2648   0.991       .  S
O2613      C2615   1.278       .  A
O2614      C2615   1.281       .  A
C2615      C2684   1.453       .  S
O2616     Zr5305   2.442   1_455  S
O2616      H2645   0.990       .  S
Zr2617     O5304   2.442       .  S
Zr2617     O2620   2.437       .  S
Zr2617     O2621   2.443       .  S
Zr2617     O2622   2.388       .  S
O2618      C2623   1.284       .  A
O2619      H2636   0.990       .  S
O2619      H2651   0.988       .  S
O2620      H2637   0.990       .  S
O2621      H5329   0.990       .  S
O2621      H2650   0.989       .  S
O2622      C2623   1.275       .  A
O2624      H2643   0.991       .  S
O2624      H2647   0.990       .  S
O2625      H2639   0.990       .  S
O2625      H2646   0.990       .  S
O2626      C2630   1.277       .  A
O2627      C2630   1.290       .  A
O2628      H2638   0.990       .  S
O2629      H2642   0.990       .  S
H2641      O5309   0.990       .  S
C2653      C2654   1.404       .  A
C2653      C2658   1.412       .  A
C2654      C2655   1.399       .  A
C2654      H2659   1.084       .  S
C2655      C2656   1.424       .  A
C2656      C2657   1.415       .  A
C2656      H2660   1.083       .  S
C2657      C2658   1.409       .  A
C2658      H2661   1.084       .  S
C2662      C2663   1.401       .  A
C2662      C2667   1.411       .  A
C2663      C2664   1.418       .  A
C2664      C2665   1.397       .  A
C2665      C2666   1.382       .  A
C2665      H2669   1.084       .  S
C2666      C2667   1.413       .  A
C2667      H2670   1.084       .  S
C2671      C2672   1.431       .  A
C2671      C2676   1.392       .  A
C2672      C2673   1.428       .  A
C2672      H2677   1.083       .  S
C2673      C2674   1.399       .  A
C2676      H2679   1.085       .  S
C2680      C2681   1.397       .  A
C2680      C2685   1.402       .  A
C2681      C2682   1.391       .  A
C2681      H2686   1.085       .  S
C2682      C2683   1.399       .  A
C2683      C2684   1.398       .  A
C2683      H2687   1.085       .  S
C2684      C2685   1.392       .  A
C2685      H2688   1.084       .  S
C2689      C2759   1.494       .  S
C2689      C4034   1.401       .  A
C2690      C4033   1.401   1_545  A
C2690      C2691   1.394       .  A
C2690      H2695   1.086       .  S
C2691      C2974   1.471       .  S
C2692      C4037   1.410   1_545  A
C2692      H2696   1.084       .  S
C2693      C2890   1.498       .  S
C2693      C4036   1.410       .  A
C2693      C2694   1.428       .  A
C2694      H2697   1.083       .  S
C2698      C2740   1.472       .  S
C2698      C2699   1.408       .  A
C2698      C2703   1.398       .  A
C2699      C2700   1.403       .  A
C2699      H2704   1.084       .  S
C2700      C2909   1.466       .  S
C2700      C2701   1.400       .  A
C2701      C2702   1.399       .  A
C2701      H2705   1.085       .  S
C2702      C2993   1.459       .  S
C2702      C2703   1.398       .  A
C2703      H2706   1.085       .  S
C2707      C3302   1.474       .  S
C2707      C3380   1.396       .  A
C2707      C3384   1.413       .  A
C2708      C3379   1.396   1_554  A
C2708      C2709   1.395       .  A
C2708      H3385   1.084   1_554  S
C2709      C2888   1.468       .  S
C2709      C2710   1.410       .  A
C2710      C2711   1.395       .  A
C2710      H2714   1.084       .  S
C2711      C2843   1.470       .  S
C2711      C2712   1.404   1_554  A
C2712      C3379   1.414       .  A
C2712      H3387   1.083       .  S
H2713      C3380   1.084       .  S
H2715      C3384   1.083       .  S
Zr2716     O2717   2.441       .  S
Zr2716     O2718   2.465       .  S
Zr2716     O2719   2.430       .  S
Zr2716     O2722   2.490       .  S
Zr2716     O2724   2.405       .  S
Zr2716     O2725   2.404       .  S
Zr2716     O2726   2.442       .  S
Zr2716     O2727   2.409       .  S
O2717      H2773   0.990       .  S
O2717      H2781   0.990       .  S
O2718      C2738   1.287       .  A
O2719      C2740   1.283       .  A
O2720     Zr2730   2.405       .  S
O2720      C2739   1.269       .  A
O2721     Zr2729   2.441       .  S
O2721      C2740   1.282       .  A
O2722      C2739   1.289       .  A
O2723     Zr2731   2.455       .  S
O2723      C2738   1.288       .  A
O2724     Zr2729   2.405       .  S
O2724     Zr2731   2.362       .  S
O2725     Zr2730   2.423       .  S
O2725     Zr2731   2.360       .  S
O2725      H2760   0.966       .  S
O2726     Zr2729   2.420       .  S
O2726     Zr2746   2.372       .  S
O2726      H2763   0.964       .  S
O2727     Zr2730   2.383       .  S
O2727     Zr2746   2.373       .  S
Zr2728     O2747   2.590       .  S
Zr2728     O2755   2.511       .  S
Zr2728     O2743   2.424       .  S
Zr2728     O2735   2.442       .  S
Zr2728     O2736   2.360       .  S
Zr2728     O2737   2.387       .  S
Zr2728     O2734   2.335       .  S
Zr2729     O2748   2.435       .  S
Zr2729     O2741   2.435       .  S
Zr2729     O2742   2.490       .  S
Zr2729     O2735   2.398       .  S
Zr2729     O2736   2.368       .  S
Zr2730     O4076   2.439       .  S
Zr2730     O2754   2.443       .  S
Zr2730     O2756   2.416       .  S
Zr2730     O2737   2.403       .  S
Zr2730     O2734   2.274       .  S
Zr2731     O2757   2.437       .  S
Zr2731     O2735   2.380       .  S
Zr2731     O2734   2.329       .  S
O2732     Zr4074   2.438   1_545  S
O2732      H2769   0.990       .  S
O2733      H2764   0.990       .  S
O2735      H2761   0.961       .  S
O2736     Zr2746   2.389       .  S
O2737     Zr2746   2.398       .  S
O2737      H2762   0.965       .  S
C2738      C3858   1.508   1_554  S
C2739      C4130   1.483       .  S
O2741      H2777   0.990       .  S
O2742      C2744   1.297       .  A
O2743      C2744   1.284       .  A
O2745     Zr2746   2.438       .  S
O2745      H2774   0.990       .  S
Zr2746     O2749   2.439       .  S
Zr2746     O4094   2.442       .  S
Zr2746     O2751   2.371       .  S
O2747      C2752   1.314       .  A
O2748      H2765   0.990       .  S
O2748      H2780   0.990       .  S
O2749      H2766   0.991       .  S
O2750     Zr4090   2.442   1_545  S
O2750      H2770   0.990       .  S
O2750      H2779   0.990       .  S
O2751      C2752   1.267       .  A
C2752      C3345   1.502       .  S
O2753      H2772   0.990       .  S
O2753      H2776   0.990       .  S
O2754      H2768   0.991       .  S
O2754      H2775   0.990       .  S
O2755      C2759   1.297       .  A
O2756      C2759   1.282       .  A
O2758      H2771   0.990       .  S
C2782      C3058   1.487       .  S
C2782      C2783   1.398       .  A
C2782      C2787   1.403       .  A
C2783      C3456   1.411       .  A
C2783      H2788   1.083       .  S
C2784      C2828   1.494       .  S
C2784      C3455   1.412       .  A
C2784      C2785   1.412       .  A
C2785      C2786   1.415       .  A
C2785      H2789   1.082       .  S
C2786      C4083   1.484   1_545  S
C2786      C3459   1.411   1_554  A
C2787      C3458   1.411       .  A
C2787      H2790   1.084       .  S
C2791      C3283   1.512       .  S
C2791      C2792   1.417       .  A
C2791      C2796   1.407       .  A
C2792      C2793   1.417       .  A
C2792      H2797   1.084       .  S
C2793      C2823   1.485       .  S
C2793      C2794   1.400       .  A
C2794      C2795   1.413       .  A
C2794      H2798   1.084       .  S
C2795      C2796   1.422       .  A
C2796      H2799   1.083       .  S
Zr2800     O2801   2.440       .  S
Zr2800     O2802   2.481       .  S
Zr2800     O2803   2.471       .  S
Zr2800     O2806   2.547       .  S
Zr2800     O2808   2.403       .  S
Zr2800     O2809   2.393       .  S
Zr2800     O2810   2.429       .  S
Zr2800     O2811   2.377       .  S
O2801      H2857   0.990       .  S
O2801      H2865   0.991       .  S
O2802      C2822   1.295       .  A
O2803      C2824   1.291       .  A
O2804     Zr2814   2.372       .  S
O2804      C2823   1.273       .  A
O2805     Zr2813   2.422       .  S
O2805      C2824   1.286       .  A
O2806      C2823   1.307       .  A
O2807     Zr2815   2.400       .  S
O2807      C2822   1.276       .  A
O2808     Zr2813   2.393       .  S
O2808     Zr2815   2.378       .  S
O2809     Zr2814   2.395       .  S
O2809     Zr2815   2.386       .  S
O2809      H2844   0.966       .  S
O2810     Zr2813   2.421       .  S
O2810     Zr2830   2.379       .  S
O2810      H2847   0.963       .  S
O2811     Zr2814   2.369       .  S
O2811     Zr2830   2.359       .  S
Zr2812     O2837   2.444       .  S
Zr2812     O2831   2.491       .  S
Zr2812     O2839   2.500       .  S
Zr2812     O2827   2.417       .  S
Zr2812     O2818   2.401       .  S
Zr2812     O2819   2.431       .  S
Zr2812     O2820   2.368       .  S
Zr2812     O2821   2.379       .  S
Zr2813     O2832   2.436       .  S
Zr2813     O2825   2.437       .  S
Zr2813     O2826   2.480       .  S
Zr2813     O2819   2.399       .  S
Zr2813     O2820   2.373       .  S
Zr2814     O2816   2.436       .  S
Zr2814     O2838   2.437       .  S
Zr2814     O2840   2.374       .  S
Zr2814     O2818   2.374       .  S
Zr2814     O2821   2.403       .  S
Zr2815     O2841   2.436       .  S
Zr2815     O2842   2.436   1_554  S
Zr2815     O2817   2.438       .  S
Zr2815     O2818   2.388       .  S
Zr2815     O2819   2.384       .  S
O2816      H2853   0.990       .  S
O2817      H2848   0.991   1_554  S
O2817      H2862   0.990       .  S
O2819      H2845   0.964       .  S
O2820     Zr2830   2.374       .  S
O2821     Zr2830   2.392       .  S
O2821      H2846   0.965       .  S
C2822      C3016   1.488       .  S
C2824      C2932   1.483       .  S
O2825      H2861   0.990       .  S
O2826      C2828   1.293       .  A
O2827      C2828   1.285       .  A
O2829     Zr2830   2.439       .  S
O2829      H2858   0.989       .  S
Zr2830     O2833   2.442       .  S
Zr2830     O2834   2.440       .  S
Zr2830     O2835   2.373       .  S
O2831      C2836   1.295       .  A
O2832      H2849   0.990       .  S
O2832      H2864   0.990       .  S
O2833      H2850   0.990       .  S
O2834      H2854   0.990       .  S
O2834      H2863   0.990       .  S
O2835      C2836   1.272       .  A
C2836      C2943   1.485       .  S
O2837      H2856   0.991       .  S
O2837      H2860   0.990       .  S
O2838      H2852   0.990       .  S
O2838      H2859   0.990       .  S
O2839      C2843   1.294       .  A
O2840      C2843   1.272       .  A
O2841      H2851   0.990   1_554  S
O2842      H2855   0.990       .  S
Zr2866     O2867   2.439       .  S
Zr2866     O2868   2.448       .  S
Zr2866     O2869   2.505       .  S
Zr2866     O2872   2.509       .  S
Zr2866     O2874   2.398       .  S
Zr2866     O2875   2.405       .  S
Zr2866     O2876   2.413       .  S
Zr2866     O2877   2.401       .  S
O2867      H2923   0.990       .  S
O2867      H2931   0.990       .  S
O2868      C2888   1.288       .  A
O2869      C2890   1.298       .  A
O2870     Zr2880   2.399       .  S
O2870      C2889   1.270   1_554  A
O2871     Zr2879   2.440       .  S
O2871      C2890   1.285       .  A
O2872      C2889   1.296   1_554  A
O2873     Zr2881   2.367       .  S
O2873      C2888   1.272       .  A
O2874     Zr2879   2.396       .  S
O2874     Zr2881   2.388       .  S
O2875     Zr2880   2.389       .  S
O2875     Zr2881   2.368       .  S
O2875      H2910   0.966       .  S
O2876     Zr2879   2.411       .  S
O2876     Zr2896   2.397       .  S
O2876      H2913   0.965       .  S
O2877     Zr2880   2.396       .  S
O2877     Zr2896   2.367       .  S
Zr2878     O2903   2.443       .  S
Zr2878     O2897   2.441       .  S
Zr2878     O2905   2.458       .  S
Zr2878     O2893   2.423       .  S
Zr2878     O2884   2.403       .  S
Zr2878     O2885   2.417       .  S
Zr2878     O2886   2.385       .  S
Zr2878     O2887   2.387       .  S
Zr2879     O2898   2.434       .  S
Zr2879     O2891   2.435       .  S
Zr2879     O2892   2.458       .  S
Zr2879     O2885   2.399       .  S
Zr2879     O2886   2.390       .  S
Zr2880     O2882   2.436       .  S
Zr2880     O2904   2.436       .  S
Zr2880     O2906   2.404       .  S
Zr2880     O2884   2.389       .  S
Zr2880     O2887   2.379       .  S
Zr2881     O2907   2.437       .  S
Zr2881     O2908   2.436       .  S
Zr2881     O2883   2.437       .  S
Zr2881     O2884   2.379       .  S
Zr2881     O2885   2.361       .  S
O2882      H2919   0.990       .  S
O2883      H2914   0.990       .  S
O2883      H2928   0.990       .  S
O2885      H2911   0.963       .  S
O2886     Zr2896   2.383       .  S
O2887     Zr2896   2.394       .  S
O2887      H2912   0.966       .  S
C2889      C4006   1.496       .  S
O2891      H2927   0.990       .  S
O2892      C2894   1.291       .  A
O2893      C2894   1.284       .  A
C2894      C3325   1.481       .  S
O2895     Zr4240   2.441   1_545  S
O2895      H2924   0.990       .  S
Zr2896     O4239   2.441       .  S
Zr2896     O4243   2.439       .  S
Zr2896     O4244   2.439       .  S
Zr2896     O2901   2.377       .  S
O2897      C2902   1.279       .  A
O2898      H2915   0.990       .  S
O2898      H2930   0.990       .  S
O2899     Zr4240   2.438   1_545  S
O2899      H2916   0.990       .  S
O2900     Zr4240   2.439   1_545  S
O2900      H2920   0.990       .  S
O2900      H4273   0.990       .  S
O2901      C2902   1.267       .  A
C2902      C4278   1.460       .  S
O2903      H2922   0.990       .  S
O2903      H2926   0.990       .  S
O2904      H2918   0.990       .  S
O2904      H2925   0.990       .  S
O2905      C2909   1.287       .  A
O2906      C2909   1.278       .  A
O2907      H2917   0.990       .  S
O2908      H2921   0.990       .  S
H2929      O4244   0.990       .  S
C2932      C2933   1.396       .  A
C2932      C2937   1.407       .  A
C2933      C2934   1.396       .  A
C2933      H2938   1.085       .  S
C2934      C4246   1.460   1_545  S
C2934      C2935   1.398       .  A
C2935      C2936   1.401       .  A
C2935      H2939   1.084       .  S
C2936      C3140   1.485       .  S
C2936      C2937   1.422       .  A
C2937      H2940   1.083       .  S
C2941      C3077   1.487       .  S
C2941      C2942   1.411       .  A
C2941      C2946   1.396       .  A
C2942      C2943   1.413       .  A
C2942      H2947   1.083       .  S
C2943      C2944   1.391       .  A
C2944      C2945   1.405       .  A
C2944      H2948   1.084       .  S
C2945      C2972   1.461       .  S
C2945      C2946   1.404       .  A
C2946      H2949   1.084       .  S
Zr2950     O2951   2.442       .  S
Zr2950     O2952   2.413       .  S
Zr2950     O2953   2.433       .  S
Zr2950     O2956   2.452       .  S
Zr2950     O2958   2.388       .  S
Zr2950     O2959   2.399       .  S
Zr2950     O2960   2.409       .  S
Zr2950     O2961   2.379       .  S
O2951      H3007   0.990       .  S
O2952      C2972   1.279       .  A
O2953      C2974   1.284       .  A
O2954     Zr2964   2.424       .  S
O2954      C2973   1.279       .  A
O2955     Zr2963   2.453       .  S
O2955      C2974   1.288       .  A
O2956      C2973   1.287       .  A
O2957     Zr2965   2.392       .  S
O2957      C2972   1.274       .  A
O2958     Zr2963   2.396       .  S
O2958     Zr2965   2.382       .  S
O2959     Zr2964   2.387       .  S
O2959     Zr2965   2.370       .  S
O2959      H2994   0.966       .  S
O2960     Zr2963   2.417       .  S
O2960     Zr2980   2.389       .  S
O2960      H2997   0.965       .  S
O2961     Zr2964   2.386       .  S
O2961     Zr2980   2.356       .  S
Zr2962     O2987   2.444       .  S
Zr2962     O2981   2.429       .  S
Zr2962     O2989   2.414       .  S
Zr2962     O2977   2.411       .  S
Zr2962     O2968   2.410       .  S
Zr2962     O2969   2.403       .  S
Zr2962     O2970   2.382       .  S
Zr2962     O2971   2.389       .  S
Zr2963     O2982   2.435       .  S
Zr2963     O2975   2.434       .  S
Zr2963     O2976   2.484       .  S
Zr2963     O2969   2.402       .  S
Zr2963     O2970   2.382       .  S
Zr2964     O2966   2.434       .  S
Zr2964     O2988   2.437       .  S
Zr2964     O2990   2.424       .  S
Zr2964     O2968   2.391       .  S
Zr2964     O2971   2.385       .  S
Zr2965     O2991   2.436       .  S
Zr2965     O2992   2.435       .  S
Zr2965     O2967   2.438       .  S
Zr2965     O2968   2.392       .  S
Zr2965     O2969   2.360       .  S
O2966      H3003   0.990       .  S
O2967      H2998   0.990       .  S
O2967      H3012   0.990       .  S
O2969      H2995   0.963       .  S
O2970     Zr2980   2.391       .  S
O2971     Zr2980   2.386       .  S
O2971      H2996   0.966       .  S
C2973      C3109   1.477       .  S
O2975      H3011   0.990       .  S
O2976      C2978   1.296   1_554  A
O2977      C2978   1.282   1_554  A
C2978      C3772   1.486       .  S
O2979      H3008   0.990       .  S
Zr2980     O2985   2.385       .  S
O2981      C2986   1.278       .  A
O2982      H2999   0.990       .  S
O2982      H3014   0.990       .  S
O2983      H3000   0.990       .  S
O2984      H3004   0.990   1_655  S
O2985      C2986   1.264       .  A
O2987      H3006   0.991       .  S
O2987      H3010   0.990       .  S
O2988      H3002   0.990       .  S
O2988      H3009   0.990       .  S
O2989      C2993   1.280       .  A
O2990      C2993   1.282       .  A
O2991      H3001   0.990       .  S
O2992      H3005   0.990       .  S
C3016      C3017   1.395       .  A
C3016      C3021   1.420       .  A
C3017      C3018   1.399       .  A
C3017      H3022   1.084       .  S
C3018      C3019   1.401       .  A
C3019      C3692   1.394       .  A
C3019      H3695   1.085       .  S
C3020      C3154   1.476       .  S
C3020      C3691   1.394       .  A
C3020      C3693   1.418       .  A
C3021      C3692   1.417       .  A
C3021      H3696   1.084       .  S
H3023      C3691   1.085       .  S
H3024      C3693   1.084       .  S
C3025      C3146   1.484       .  S
C3025      C4370   1.418   1_545  A
C3026      C4369   1.418       .  A
C3026      C3027   1.422       .  A
C3026      H3031   1.083       .  S
C3027      C3282   1.492       .  S
C3028      C3029   1.404   1_565  A
C3028      H4376   1.084       .  S
C3029      C3057   1.466       .  S
C3029      C3030   1.395       .  A
C3030      H3033   1.086       .  S
H3032      C4372   1.084       .  S
Zr3034     O3035   2.443       .  S
Zr3034     O3036   2.467       .  S
Zr3034     O3037   2.465       .  S
Zr3034     O3040   2.429       .  S
Zr3034     O3042   2.389       .  S
Zr3034     O3043   2.394       .  S
Zr3034     O3044   2.434       .  S
Zr3034     O3045   2.416       .  S
O3035      H3091   0.990       .  S
O3035      H3099   0.991       .  S
O3036      C3056   1.290       .  A
O3037      C3058   1.284       .  A
O3038     Zr3048   2.442       .  S
O3038      C3057   1.286       .  A
O3039     Zr3047   2.415       .  S
O3039      C3058   1.275       .  A
O3040      C3057   1.284       .  A
O3041     Zr3049   2.379       .  S
O3041      C3056   1.274       .  A
O3042     Zr3047   2.401       .  S
O3042     Zr3049   2.387       .  S
O3043     Zr3048   2.397       .  S
O3043     Zr3049   2.380       .  S
O3043      H3078   0.966       .  S
O3044     Zr3047   2.398       .  S
O3044     Zr3064   2.384       .  S
O3044      H3081   0.963       .  S
O3045     Zr3048   2.406       .  S
O3045     Zr3064   2.388       .  S
Zr3046     O3071   2.451       .  S
Zr3046     O3065   2.409       .  S
Zr3046     O3073   2.399       .  S
Zr3046     O3061   2.419       .  S
Zr3046     O3052   2.393       .  S
Zr3046     O3053   2.399       .  S
Zr3046     O3054   2.392       .  S
Zr3046     O3055   2.405       .  S
Zr3047     O3066   2.435       .  S
Zr3047     O3059   2.435       .  S
Zr3047     O3060   2.415       .  S
Zr3047     O3053   2.400       .  S
Zr3047     O3054   2.381       .  S
Zr3048     O3050   2.437       .  S
Zr3048     O3072   2.437       .  S
Zr3048     O3074   2.465       .  S
Zr3048     O3052   2.391       .  S
Zr3048     O3055   2.381       .  S
Zr3049     O3075   2.436       .  S
Zr3049     O3076   2.436       .  S
Zr3049     O3051   2.438       .  S
Zr3049     O3052   2.377       .  S
Zr3049     O3053   2.376       .  S
O3050      H3087   0.990       .  S
O3051      H3082   0.990       .  S
O3051      H3096   0.990       .  S
O3053      H3079   0.966       .  S
O3054     Zr3064   2.385       .  S
O3055     Zr3064   2.375       .  S
O3055      H3080   0.965       .  S
C3056      C3104   1.482       .  S
O3059      H3095   0.990       .  S
O3060      C3062   1.280       .  A
O3061      C3062   1.282       .  A
C3062      C3354   1.450       .  S
O3063     Zr4408   2.438       .  S
O3063      H3092   0.990       .  S
Zr3064     O4407   2.440   1_545  S
Zr3064     O3067   2.439   1_545  S
Zr3064     O4412   2.439   1_545  S
Zr3064     O3069   2.413       .  S
O3065      C3070   1.272       .  A
O3066      H3083   0.990       .  S
O3066      H3098   0.990       .  S
O3067      H4428   0.990       .  S
O3068     Zr4408   2.438       .  S
O3068      H3088   0.990       .  S
O3068      H4441   0.989       .  S
O3069      C3070   1.270       .  A
C3070      C3347   1.459       .  S
O3071      H3090   0.990       .  S
O3071      H3094   0.990       .  S
O3072      H3086   0.990       .  S
O3072      H3093   0.990       .  S
O3073      C3077   1.279       .  A
O3074      C3077   1.293       .  A
O3075      H3085   0.990       .  S
O3076      H3089   0.990       .  S
H3084      O4411   0.990       .  S
H3097      O4412   0.990       .  S
C3100      C3650   1.486       .  S
C3100      C3101   1.415       .  A
C3100      C3105   1.404       .  A
C3101      C3102   1.410       .  A
C3101      H3106   1.084       .  S
C3102      C3236   1.494       .  S
C3102      C3103   1.399       .  A
C3103      C3104   1.414       .  A
C3103      H3107   1.083       .  S
C3104      C3105   1.403       .  A
C3105      H3108   1.084       .  S
C3109      C3110   1.402       .  A
C3109      C3114   1.403       .  A
C3110      C3111   1.404       .  A
C3110      H3115   1.085       .  S
C3111      C3229   1.460       .  S
C3111      C3112   1.386       .  A
C3112      C3113   1.400       .  A
C3112      H3116   1.083       .  S
C3113      C3114   1.402       .  A
Zr3118     O3119   2.444       .  S
Zr3118     O3120   2.384       .  S
Zr3118     O3121   2.411       .  S
Zr3118     O3124   2.395       .  S
Zr3118     O3126   2.394       .  S
Zr3118     O3127   2.403       .  S
Zr3118     O3128   2.418       .  S
Zr3118     O3129   2.396       .  S
O3119      H3175   0.990       .  S
O3119      H3183   0.991       .  S
O3120      C3140   1.272       .  A
O3121      C3142   1.272       .  A
O3122     Zr3132   2.419       .  S
O3122      C3141   1.277       .  A
O3123     Zr3131   2.405       .  S
O3123      C3142   1.267       .  A
O3124      C3141   1.277       .  A
O3125     Zr3133   2.474       .  S
O3125      C3140   1.292       .  A
O3126     Zr3131   2.413       .  S
O3126     Zr3133   2.362       .  S
O3127     Zr3132   2.388       .  S
O3127     Zr3133   2.349       .  S
O3127      H3162   0.966       .  S
O3128     Zr3131   2.410       .  S
O3128     Zr3148   2.378       .  S
O3128      H3165   0.964       .  S
O3129     Zr3132   2.399       .  S
O3129     Zr3148   2.377       .  S
Zr3130     O3155   2.449       .  S
Zr3130     O3149   2.539       .  S
Zr3130     O3157   2.368       .  S
Zr3130     O3145   2.495       .  S
Zr3130     O3137   2.426       .  S
Zr3130     O3138   2.370       .  S
Zr3130     O3139   2.384       .  S
Zr3130     O3136   2.350       .  S
Zr3131     O3143   2.437   1_655  S
Zr3131     O3144   2.424       .  S
Zr3131     O3137   2.393       .  S
Zr3131     O3138   2.402       .  S
Zr3132     O3134   2.439       .  S
Zr3132     O3156   2.441       .  S
Zr3132     O3158   2.448       .  S
Zr3132     O3139   2.359       .  S
Zr3132     O3136   2.281       .  S
Zr3133     O3159   2.436       .  S
Zr3133     O4504   2.437   1_545  S
Zr3133     O3135   2.444       .  S
Zr3133     O3137   2.394       .  S
Zr3133     O3136   2.330       .  S
O3134      H3171   0.990       .  S
O3135      H3166   0.990       .  S
O3135      H3180   0.990       .  S
O3137      H3163   0.961       .  S
O3138     Zr3148   2.404       .  S
O3139     Zr3148   2.399       .  S
O3139      H3164   0.963       .  S
C3141      C3352   1.454       .  S
O3143      H3179   0.990   1_455  S
O3144      C3146   1.283       .  A
O3145      C3146   1.291       .  A
O3147     Zr3148   2.443       .  S
O3147      H3176   0.990       .  S
Zr3148     O3151   2.435   1_655  S
Zr3148     O3152   2.441       .  S
Zr3148     O3153   2.359       .  S
O3149      C3154   1.303       .  A
O3150      H3167   0.989       .  S
O3150      H3182   0.989       .  S
O3151      H3168   0.990       .  S
O3152      H3172   0.990       .  S
O3152      H3181   0.989       .  S
O3153      C3154   1.268       .  A
O3155      H4518   0.991       .  S
O3155      H3178   0.991       .  S
O3156      H3170   0.991       .  S
O3156      H3177   0.990       .  S
O3157      C3161   1.270       .  A
O3158      C3161   1.289       .  A
O3159      H3169   0.990       .  S
O3160     Zr4477   2.437       .  S
O3160      H3173   0.990       .  S
C3161      C4680   1.460   1_545  S
H3174      O4499   0.991       .  S
C3184      C3221   1.482       .  S
C3184      C3185   1.424       .  A
C3184      C3189   1.396       .  A
C3185      C3186   1.421       .  A
C3185      H3190   1.083       .  S
C3186      C3410   1.510       .  S
C3187      C3188   1.401   1_455  A
C3187      H3191   1.084   1_455  S
C3188      C3295   1.461       .  S
C3189      H3192   1.085       .  S
Zr3193     O3194   2.441       .  S
Zr3193     O3195   2.492       .  S
Zr3193     O3196   2.562       .  S
Zr3193     O3199   2.470       .  S
Zr3193     O3201   2.386       .  S
Zr3193     O3202   2.404       .  S
Zr3193     O3203   2.402       .  S
Zr3193     O3204   2.420       .  S
O3194      H3250   0.990       .  S
O3194      H3258   0.990       .  S
O3195      C3215   1.296       .  A
O3196      C3217   1.310       .  A
O3197     Zr3207   2.474       .  S
O3197      C3216   1.293       .  A
O3198     Zr3206   2.384       .  S
O3198      C3217   1.274       .  A
O3199      C3216   1.294       .  A
O3200     Zr3208   2.357       .  S
O3200      C3215   1.270       .  A
O3201     Zr3206   2.408       .  S
O3201     Zr3208   2.397       .  S
O3202     Zr3207   2.375       .  S
O3202     Zr3208   2.375       .  S
O3202      H3237   0.964       .  S
O3203     Zr3206   2.403       .  S
O3203     Zr3223   2.352       .  S
O3203      H3240   0.962       .  S
O3204     Zr3207   2.408       .  S
O3204     Zr3223   2.383       .  S
Zr3205     O3230   2.433       .  S
Zr3205     O3224   2.475       .  S
Zr3205     O3232   2.424       .  S
Zr3205     O3220   2.521       .  S
Zr3205     O3211   2.415       .  S
Zr3205     O3212   2.398       .  S
Zr3205     O3213   2.378       .  S
Zr3205     O3214   2.403       .  S
Zr3206     O3225   2.436       .  S
Zr3206     O3218   2.435       .  S
Zr3206     O3219   2.407       .  S
Zr3206     O3212   2.389       .  S
Zr3206     O3213   2.396       .  S
Zr3207     O3209   2.436       .  S
Zr3207     O3231   2.437       .  S
Zr3207     O3233   2.481       .  S
Zr3207     O3211   2.400       .  S
Zr3207     O3214   2.372       .  S
Zr3208     O3234   2.434       .  S
Zr3208     O3235   2.438       .  S
Zr3208     O3210   2.439       .  S
Zr3208     O3211   2.385       .  S
Zr3208     O3212   2.349       .  S
O3209      H3246   0.990       .  S
O3210      H3241   0.990       .  S
O3210      H3255   0.990       .  S
O3212      H3238   0.961       .  S
O3213     Zr3223   2.400       .  S
O3214     Zr3223   2.377       .  S
O3214      H3239   0.965       .  S
C3215      C3338   1.469       .  S
C3216      C3329   1.509       .  S
C3217      C3343   1.491       .  S
O3218      H3254   0.990       .  S
O3219      C3221   1.279       .  A
O3220      C3221   1.299       .  A
O3222     Zr3223   2.442       .  S
O3222      H3251   0.990       .  S
Zr3223     O3226   2.437       .  S
Zr3223     O3227   2.440       .  S
Zr3223     O3228   2.363       .  S
O3224      C3229   1.291       .  A
O3225      H3242   0.990       .  S
O3225      H3257   0.990       .  S
O3226      H3243   0.990       .  S
O3227      H3247   0.990       .  S
O3227      H3256   0.989       .  S
O3228      C3229   1.272       .  A
O3230      H3249   0.991       .  S
O3230      H3253   0.989       .  S
O3231      H3245   0.990       .  S
O3231      H3252   0.990       .  S
O3232      C3236   1.283       .  A
O3233      C3236   1.296       .  A
O3234      H3244   0.990       .  S
O3235      H3248   0.990       .  S
Zr3259     O3260   2.438       .  S
Zr3259     O3261   2.502       .  S
Zr3259     O3262   2.532       .  S
Zr3259     O3265   2.495       .  S
Zr3259     O3267   2.399       .  S
Zr3259     O3268   2.401       .  S
Zr3259     O3269   2.444       .  S
Zr3259     O3270   2.414       .  S
O3260      H3316   0.990       .  S
O3260      H3324   0.990       .  S
O3261      C3281   1.299       .  A
O3262      C3283   1.295       .  A
O3263     Zr3273   2.439       .  S
O3263      C3282   1.285       .  A
O3264     Zr3272   2.384       .  S
O3264      C3283   1.264       .  A
O3265      C3282   1.298       .  A
O3266     Zr3274   2.395       .  S
O3266      C3281   1.276       .  A
O3267     Zr3272   2.412       .  S
O3267     Zr3274   2.379       .  S
O3268     Zr3273   2.386       .  S
O3268     Zr3274   2.383       .  S
O3268      H3303   0.964       .  S
O3269     Zr3272   2.410       .  S
O3269     Zr3289   2.373       .  S
O3269      H3306   0.964       .  S
O3270     Zr3273   2.395       .  S
O3270     Zr3289   2.385       .  S
Zr3271     O3296   2.445       .  S
Zr3271     O3290   2.449       .  S
Zr3271     O3298   2.396       .  S
Zr3271     O3286   2.434       .  S
Zr3271     O3277   2.402       .  S
Zr3271     O3278   2.414       .  S
Zr3271     O3279   2.371       .  S
Zr3271     O3280   2.390       .  S
Zr3272     O3291   2.439       .  S
Zr3272     O3284   2.430       .  S
Zr3272     O3285   2.407       .  S
Zr3272     O3278   2.389       .  S
Zr3272     O3279   2.385       .  S
Zr3273     O3275   2.436       .  S
Zr3273     O3297   2.439       .  S
Zr3273     O3299   2.449       .  S
Zr3273     O3277   2.381       .  S
Zr3273     O3280   2.392       .  S
Zr3274     O3300   2.437       .  S
Zr3274     O3301   2.437       .  S
Zr3274     O3276   2.439       .  S
Zr3274     O3277   2.379       .  S
Zr3274     O3278   2.387       .  S
O3275      H3312   0.990       .  S
O3276      H3307   0.990       .  S
O3276      H3321   0.990       .  S
O3278      H3304   0.964       .  S
O3279     Zr3289   2.390       .  S
O3280     Zr3289   2.383       .  S
O3280      H3305   0.966       .  S
C3281      C3327   1.495       .  S
O3284      H3320   0.991       .  S
O3285      C3287   1.277       .  A
O3286      C3287   1.281       .  A
C3287      C3356   1.451       .  S
O3288      H3317   0.990       .  S
Zr3289     O3292   2.438       .  S
Zr3289     O3293   2.442   1_655  S
Zr3289     O3294   2.387       .  S
O3290      C3295   1.283       .  A
O3291      H3308   0.990       .  S
O3291      H3323   0.988       .  S
O3292      H3309   0.990   1_655  S
O3293      H3322   0.989   1_455  S
O3294      C3295   1.275       .  A
O3296      H3315   0.991       .  S
O3296      H3319   0.990       .  S
O3297      H3311   0.990       .  S
O3297      H3318   0.990       .  S
O3298      C3302   1.276       .  A
O3299      C3302   1.290       .  A
O3300      H3310   0.990       .  S
O3301      H3314   0.990       .  S
C3325      C3326   1.404       .  A
C3325      C3330   1.412       .  A
C3326      C3327   1.399       .  A
C3326      H3331   1.084       .  S
C3327      C3328   1.424       .  A
C3328      C3329   1.415       .  A
C3328      H3332   1.083       .  S
C3329      C3330   1.408       .  A
C3330      H3333   1.084       .  S
C3334      C3561   1.497       .  S
C3334      C3335   1.401       .  A
C3334      C3339   1.410       .  A
C3335      C3336   1.417       .  A
C3335      H4684   1.084       .  S
C3336      C4505   1.460       .  S
C3336      C3337   1.398       .  A
C3337      C3338   1.383       .  A
C3337      H3341   1.084       .  S
C3338      C3339   1.413       .  A
C3339      H3342   1.084       .  S
H3340      C4679   1.084       .  S
C3343      C3344   1.431       .  A
C3343      C3348   1.392       .  A
C3344      C3345   1.427       .  A
C3344      H3349   1.083       .  S
C3345      C3346   1.399       .  A
C3346      C4691   1.408       .  A
C3346      H4694   1.084       .  S
C3347      C4690   1.407   1_545  A
C3347      C4692   1.401   1_545  A
C3348      C4691   1.400       .  A
C3348      H3351   1.085       .  S
H3350      C4690   1.084   1_545  S
C3352      C3353   1.398       .  A
C3352      C3357   1.401       .  A
C3353      C3354   1.391       .  A
C3353      H3358   1.085       .  S
C3354      C3355   1.399       .  A
C3355      C3356   1.398       .  A
C3355      H3359   1.085       .  S
C3356      C3357   1.391       .  A
C3357      H3360   1.084       .  S
C3361      C3431   1.495       .  S
C3361      C4706   1.402       .  A
C3362      C4705   1.402   1_545  A
C3362      C3363   1.395       .  A
C3362      H3367   1.086       .  S
C3363      C3646   1.473       .  S
C3364      C4709   1.410   1_545  A
C3364      H3368   1.084       .  S
C3365      C3562   1.497       .  S
C3365      C4708   1.410       .  A
C3365      C3366   1.428       .  A
C3366      H3369   1.083       .  S
C3370      C3412   1.471       .  S
C3370      C3371   1.409       .  A
C3370      C3375   1.396       .  A
C3371      C3372   1.404       .  A
C3371      H3376   1.084       .  S
C3372      C3581   1.467       .  S
C3372      C3373   1.400       .  A
C3373      C3374   1.399       .  A
C3373      H3377   1.085       .  S
C3374      C3665   1.457       .  S
C3374      C3375   1.397       .  A
C3375      H3378   1.085       .  S
C3379      C3974   1.475       .  S
C3380      C3381   1.395       .  A
C3381      C3560   1.466       .  S
C3381      C3382   1.410       .  A
C3382      C3383   1.394       .  A
C3382      H3386   1.084       .  S
C3383      C3515   1.469       .  S
C3383      C3384   1.403       .  A
Zr3388     O3389   2.441       .  S
Zr3388     O3390   2.467       .  S
Zr3388     O3391   2.428       .  S
Zr3388     O3394   2.493       .  S
Zr3388     O3396   2.406       .  S
Zr3388     O3397   2.403       .  S
Zr3388     O3398   2.443       .  S
Zr3388     O3399   2.408       .  S
O3389      H3445   0.990       .  S
O3389      H3453   0.990       .  S
O3390      C3410   1.288       .  A
O3391      C3412   1.283       .  A
O3392     Zr3402   2.406       .  S
O3392      C3411   1.269       .  A
O3393     Zr3401   2.442       .  S
O3393      C3412   1.283       .  A
O3394      C3411   1.289       .  A
O3395     Zr3403   2.457       .  S
O3395      C3410   1.288       .  A
O3396     Zr3401   2.404       .  S
O3396     Zr3403   2.360       .  S
O3397     Zr3402   2.422       .  S
O3397     Zr3403   2.361       .  S
O3397      H3432   0.966       .  S
O3398     Zr3401   2.420       .  S
O3398     Zr3418   2.371       .  S
O3398      H3435   0.964       .  S
O3399     Zr3402   2.383       .  S
O3399     Zr3418   2.375       .  S
Zr3400     O3419   2.591       .  S
Zr3400     O3427   2.514       .  S
Zr3400     O3415   2.425       .  S
Zr3400     O3407   2.443       .  S
Zr3400     O3408   2.360       .  S
Zr3400     O3409   2.387       .  S
Zr3400     O3406   2.336       .  S
Zr3401     O3420   2.435       .  S
Zr3401     O3413   2.435       .  S
Zr3401     O3414   2.488       .  S
Zr3401     O3407   2.399       .  S
Zr3401     O3408   2.368       .  S
Zr3402     O4748   2.439       .  S
Zr3402     O3426   2.443       .  S
Zr3402     O3428   2.416       .  S
Zr3402     O3409   2.405       .  S
Zr3402     O3406   2.274       .  S
Zr3403     O3429   2.436       .  S
Zr3403     O3407   2.379       .  S
Zr3403     O3406   2.330       .  S
O3404     Zr4746   2.439   1_545  S
O3404      H3441   0.990       .  S
O3405      H3436   0.990       .  S
O3407      H3433   0.961       .  S
O3408     Zr3418   2.387       .  S
O3409     Zr3418   2.399       .  S
O3409      H3434   0.965       .  S
C3411      C4802   1.486       .  S
O3413      H3449   0.990       .  S
O3414      C3416   1.297       .  A
O3415      C3416   1.284       .  A
O3417     Zr3418   2.437       .  S
O3417      H3446   0.990       .  S
Zr3418     O3421   2.439       .  S
Zr3418     O4766   2.442       .  S
Zr3418     O3423   2.376       .  S
O3419      C3424   1.314       .  A
O3420      H3437   0.990       .  S
O3420      H3452   0.990       .  S
O3421      H3438   0.991       .  S
O3422     Zr4762   2.442   1_545  S
O3422      H3442   0.990       .  S
O3422      H3451   0.990       .  S
O3423      C3424   1.268       .  A
C3424      C4017   1.503       .  S
O3425      H3444   0.990       .  S
O3425      H3448   0.990       .  S
O3426      H3440   0.991       .  S
O3426      H3447   0.990       .  S
O3427      C3431   1.297       .  A
O3428      C3431   1.282       .  A
O3430      H3443   0.990       .  S
C3454      C3730   1.487       .  S
C3454      C3455   1.398   1_556  A
C3454      C3459   1.404       .  A
C3455      H3460   1.084       .  S
C3456      C3500   1.496       .  S
C3456      C3457   1.413       .  A
C3457      C3458   1.416       .  A
C3457      H3461   1.082       .  S
C3458      C4755   1.485   1_545  S
C3459      H3462   1.084       .  S
C3463      C3955   1.512       .  S
C3463      C3464   1.416       .  A
C3463      C3468   1.408       .  A
C3464      C3465   1.416       .  A
C3464      H3469   1.084       .  S
C3465      C3495   1.483       .  S
C3465      C3466   1.399       .  A
C3466      C3467   1.412       .  A
C3466      H3470   1.084       .  S
C3467      C3468   1.423       .  A
C3468      H3471   1.083       .  S
Zr3472     O3473   2.439       .  S
Zr3472     O3474   2.481       .  S
Zr3472     O3475   2.469       .  S
Zr3472     O3478   2.543       .  S
Zr3472     O3480   2.403       .  S
Zr3472     O3481   2.391       .  S
Zr3472     O3482   2.429       .  S
Zr3472     O3483   2.377       .  S
O3473      H3529   0.990       .  S
O3473      H3537   0.991       .  S
O3474      C3494   1.295       .  A
O3475      C3496   1.291       .  A
O3476     Zr3486   2.370       .  S
O3476      C3495   1.273       .  A
O3477     Zr3485   2.424       .  S
O3477      C3496   1.287       .  A
O3478      C3495   1.306       .  A
O3479     Zr3487   2.398       .  S
O3479      C3494   1.275       .  A
O3480     Zr3485   2.395       .  S
O3480     Zr3487   2.378       .  S
O3481     Zr3486   2.393       .  S
O3481     Zr3487   2.385       .  S
O3481      H3516   0.966       .  S
O3482     Zr3485   2.420       .  S
O3482     Zr3502   2.379       .  S
O3482      H3519   0.963       .  S
O3483     Zr3486   2.368       .  S
O3483     Zr3502   2.359       .  S
Zr3484     O3509   2.443       .  S
Zr3484     O3503   2.493       .  S
Zr3484     O3511   2.499       .  S
Zr3484     O3499   2.420       .  S
Zr3484     O3490   2.401       .  S
Zr3484     O3491   2.431       .  S
Zr3484     O3492   2.367       .  S
Zr3484     O3493   2.379       .  S
Zr3485     O3504   2.435       .  S
Zr3485     O3497   2.437       .  S
Zr3485     O3498   2.482       .  S
Zr3485     O3491   2.398       .  S
Zr3485     O3492   2.373       .  S
Zr3486     O3488   2.437       .  S
Zr3486     O3510   2.438       .  S
Zr3486     O3512   2.371       .  S
Zr3486     O3490   2.374       .  S
Zr3486     O3493   2.403       .  S
Zr3487     O3513   2.436       .  S
Zr3487     O3514   2.436       .  S
Zr3487     O3489   2.438       .  S
Zr3487     O3490   2.387       .  S
Zr3487     O3491   2.384       .  S
O3488      H3525   0.990       .  S
O3489      H3520   0.991       .  S
O3489      H3534   0.990       .  S
O3491      H3517   0.964       .  S
O3492     Zr3502   2.375       .  S
O3493     Zr3502   2.391       .  S
O3493      H3518   0.965       .  S
C3494      C3688   1.488       .  S
C3496      C3604   1.484       .  S
O3497      H3533   0.990       .  S
O3498      C3500   1.293       .  A
O3499      C3500   1.285       .  A
O3501     Zr3502   2.439       .  S
O3501      H3530   0.989       .  S
Zr3502     O3505   2.442       .  S
Zr3502     O3506   2.440       .  S
Zr3502     O3507   2.371       .  S
O3503      C3508   1.295       .  A
O3504      H3521   0.990       .  S
O3504      H3536   0.990       .  S
O3505      H3522   0.990       .  S
O3506      H3526   0.990       .  S
O3506      H3535   0.990       .  S
O3507      C3508   1.272       .  A
C3508      C3615   1.485       .  S
O3509      H3528   0.991       .  S
O3509      H3532   0.990       .  S
O3510      H3524   0.990       .  S
O3510      H3531   0.990       .  S
O3511      C3515   1.294       .  A
O3512      C3515   1.272       .  A
O3513      H3523   0.990       .  S
O3514      H3527   0.990       .  S
Zr3538     O3539   2.440       .  S
Zr3538     O3540   2.446       .  S
Zr3538     O3541   2.502       .  S
Zr3538     O3544   2.511       .  S
Zr3538     O3546   2.398       .  S
Zr3538     O3547   2.402       .  S
Zr3538     O3548   2.415       .  S
Zr3538     O3549   2.399       .  S
O3539      H3595   0.990       .  S
O3539      H3603   0.990       .  S
O3540      C3560   1.288       .  A
O3541      C3562   1.298       .  A
O3542     Zr3552   2.398       .  S
O3542      C3561   1.270       .  A
O3543     Zr3551   2.443       .  S
O3543      C3562   1.285       .  A
O3544      C3561   1.296       .  A
O3545     Zr3553   2.366       .  S
O3545      C3560   1.271       .  A
O3546     Zr3551   2.397       .  S
O3546     Zr3553   2.387       .  S
O3547     Zr3552   2.387       .  S
O3547     Zr3553   2.369       .  S
O3547      H3582   0.966       .  S
O3548     Zr3551   2.412       .  S
O3548     Zr3568   2.396       .  S
O3548      H3585   0.965       .  S
O3549     Zr3552   2.394       .  S
O3549     Zr3568   2.367       .  S
Zr3550     O3575   2.443       .  S
Zr3550     O3569   2.443       .  S
Zr3550     O3577   2.460       .  S
Zr3550     O3565   2.423       .  S
Zr3550     O3556   2.402       .  S
Zr3550     O3557   2.417       .  S
Zr3550     O3558   2.386       .  S
Zr3550     O3559   2.387       .  S
Zr3551     O3570   2.435       .  S
Zr3551     O3563   2.435       .  S
Zr3551     O3564   2.460       .  S
Zr3551     O3557   2.398       .  S
Zr3551     O3558   2.391       .  S
Zr3552     O3554   2.435       .  S
Zr3552     O3576   2.436       .  S
Zr3552     O3578   2.404       .  S
Zr3552     O3556   2.389       .  S
Zr3552     O3559   2.379       .  S
Zr3553     O3579   2.436       .  S
Zr3553     O3580   2.435       .  S
Zr3553     O3555   2.438       .  S
Zr3553     O3556   2.380       .  S
Zr3553     O3557   2.360       .  S
O3554      H3591   0.990       .  S
O3555      H3586   0.990       .  S
O3555      H3600   0.990       .  S
O3557      H3583   0.963       .  S
O3558     Zr3568   2.384       .  S
O3559     Zr3568   2.395       .  S
O3559      H3584   0.966       .  S
O3563      H3599   0.990       .  S
O3564      C3566   1.291       .  A
O3565      C3566   1.284       .  A
C3566      C3997   1.481       .  S
O3567     Zr4912   2.441   1_545  S
O3567      H3596   0.990       .  S
Zr3568     O4911   2.441       .  S
Zr3568     O4915   2.439       .  S
Zr3568     O4916   2.439       .  S
Zr3568     O3573   2.379       .  S
O3569      C3574   1.279       .  A
O3570      H3587   0.990       .  S
O3570      H3602   0.990       .  S
O3571     Zr4912   2.439   1_545  S
O3571      H3588   0.990       .  S
O3572     Zr4912   2.439   1_545  S
O3572      H3592   0.991       .  S
O3572      H4945   0.990       .  S
O3573      C3574   1.267       .  A
C3574      C4950   1.460       .  S
O3575      H3594   0.990       .  S
O3575      H3598   0.991       .  S
O3576      H3590   0.990       .  S
O3576      H3597   0.990       .  S
O3577      C3581   1.287       .  A
O3578      C3581   1.278       .  A
O3579      H3589   0.990       .  S
O3580      H3593   0.990       .  S
H3601      O4916   0.990       .  S
C3604      C3605   1.396       .  A
C3604      C3609   1.407       .  A
C3605      C3606   1.396       .  A
C3605      H3610   1.085       .  S
C3606      C4918   1.460   1_545  S
C3606      C3607   1.397       .  A
C3607      C3608   1.401       .  A
C3607      H3611   1.084       .  S
C3608      C3812   1.483       .  S
C3608      C3609   1.422       .  A
C3609      H3612   1.083       .  S
C3613      C3749   1.486       .  S
C3613      C3614   1.411       .  A
C3613      C3618   1.396       .  A
C3614      C3615   1.413       .  A
C3614      H3619   1.083       .  S
C3615      C3616   1.391       .  A
C3616      C3617   1.405       .  A
C3616      H3620   1.084       .  S
C3617      C3644   1.460       .  S
C3617      C3618   1.403       .  A
C3618      H3621   1.084       .  S
Zr3622     O3623   2.442       .  S
Zr3622     O3624   2.413       .  S
Zr3622     O3625   2.434       .  S
Zr3622     O3628   2.451       .  S
Zr3622     O3630   2.388       .  S
Zr3622     O3631   2.399       .  S
Zr3622     O3632   2.409       .  S
Zr3622     O3633   2.382       .  S
O3623      H3679   0.990       .  S
O3624      C3644   1.279       .  A
O3625      C3646   1.284       .  A
O3626     Zr3636   2.425       .  S
O3626      C3645   1.279       .  A
O3627     Zr3635   2.455       .  S
O3627      C3646   1.288       .  A
O3628      C3645   1.287       .  A
O3629     Zr3637   2.390       .  S
O3629      C3644   1.274       .  A
O3630     Zr3635   2.397       .  S
O3630     Zr3637   2.382       .  S
O3631     Zr3636   2.386       .  S
O3631     Zr3637   2.369       .  S
O3631      H3666   0.966       .  S
O3632     Zr3635   2.415       .  S
O3632     Zr3652   2.390       .  S
O3632      H3669   0.965       .  S
O3633     Zr3636   2.388       .  S
O3633     Zr3652   2.357       .  S
Zr3634     O3659   2.445       .  S
Zr3634     O3653   2.429       .  S
Zr3634     O3661   2.412       .  S
Zr3634     O3649   2.413       .  S
Zr3634     O3640   2.410       .  S
Zr3634     O3641   2.403       .  S
Zr3634     O3642   2.383       .  S
Zr3634     O3643   2.390       .  S
Zr3635     O3654   2.433       .  S
Zr3635     O3647   2.435       .  S
Zr3635     O3648   2.482       .  S
Zr3635     O3641   2.403       .  S
Zr3635     O3642   2.382       .  S
Zr3636     O3638   2.435       .  S
Zr3636     O3660   2.437       .  S
Zr3636     O3662   2.423       .  S
Zr3636     O3640   2.390       .  S
Zr3636     O3643   2.384       .  S
Zr3637     O3663   2.437       .  S
Zr3637     O3664   2.434       .  S
Zr3637     O3639   2.437       .  S
Zr3637     O3640   2.391       .  S
Zr3637     O3641   2.360       .  S
O3638      H3675   0.990       .  S
O3639      H3670   0.990       .  S
O3639      H3684   0.990       .  S
O3641      H3667   0.963       .  S
O3642     Zr3652   2.391       .  S
O3643     Zr3652   2.386       .  S
O3643      H3668   0.966       .  S
C3645      C3781   1.477       .  S
O3647      H3683   0.990       .  S
O3648      C3650   1.296       .  A
O3649      C3650   1.282       .  A
O3651      H3680   0.990       .  S
Zr3652     O3657   2.385       .  S
O3653      C3658   1.278       .  A
O3654      H3671   0.990       .  S
O3654      H3686   0.990       .  S
O3655      H3672   0.990       .  S
O3656      H3676   0.990       .  S
O3657      C3658   1.263       .  A
O3659      H3678   0.991       .  S
O3659      H3682   0.991       .  S
O3660      H3674   0.990       .  S
O3660      H3681   0.990       .  S
O3661      C3665   1.280       .  A
O3662      C3665   1.282       .  A
O3663      H3673   0.990       .  S
O3664      H3677   0.990       .  S
C3688      C3689   1.394       .  A
C3688      C3693   1.421       .  A
C3689      C3690   1.398       .  A
C3689      H3694   1.084       .  S
C3690      C3691   1.402       .  A
C3692      C3826   1.472   1_554  S
C3697      C3818   1.482       .  S
C3697      C5042   1.418   1_545  A
C3698      C5041   1.418       .  A
C3698      C3699   1.422       .  A
C3698      H3703   1.083       .  S
C3699      C3954   1.491       .  S
C3700      C3701   1.403   1_565  A
C3700      H5048   1.084       .  S
C3701      C3729   1.465       .  S
C3701      C3702   1.395       .  A
C3702      H3705   1.086       .  S
H3704      C5044   1.084       .  S
Zr3706     O3707   2.442       .  S
Zr3706     O3708   2.466       .  S
Zr3706     O3709   2.465       .  S
Zr3706     O3712   2.427       .  S
Zr3706     O3714   2.389       .  S
Zr3706     O3715   2.394       .  S
Zr3706     O3716   2.433       .  S
Zr3706     O3717   2.416       .  S
O3707      H3763   0.990       .  S
O3707      H3771   0.991       .  S
O3708      C3728   1.289       .  A
O3709      C3730   1.284       .  A
O3710     Zr3720   2.441       .  S
O3710      C3729   1.286       .  A
O3711     Zr3719   2.413       .  S
O3711      C3730   1.274       .  A
O3712      C3729   1.283       .  A
O3713     Zr3721   2.381       .  S
O3713      C3728   1.274       .  A
O3714     Zr3719   2.402       .  S
O3714     Zr3721   2.387       .  S
O3715     Zr3720   2.397       .  S
O3715     Zr3721   2.380       .  S
O3715      H3750   0.966       .  S
O3716     Zr3719   2.395       .  S
O3716     Zr3736   2.381       .  S
O3716      H3753   0.964       .  S
O3717     Zr3720   2.403       .  S
O3717     Zr3736   2.388       .  S
Zr3718     O3743   2.450       .  S
Zr3718     O3737   2.411       .  S
Zr3718     O3745   2.398       .  S
Zr3718     O3733   2.422       .  S
Zr3718     O3724   2.394       .  S
Zr3718     O3725   2.398       .  S
Zr3718     O3726   2.390       .  S
Zr3718     O3727   2.406       .  S
Zr3719     O3738   2.435       .  S
Zr3719     O3731   2.436       .  S
Zr3719     O3732   2.413       .  S
Zr3719     O3725   2.399       .  S
Zr3719     O3726   2.379       .  S
Zr3720     O3722   2.436       .  S
Zr3720     O3744   2.439       .  S
Zr3720     O3746   2.464       .  S
Zr3720     O3724   2.390       .  S
Zr3720     O3727   2.378       .  S
Zr3721     O3747   2.437       .  S
Zr3721     O3748   2.436       .  S
Zr3721     O3723   2.437       .  S
Zr3721     O3724   2.377       .  S
Zr3721     O3725   2.376       .  S
O3722      H3759   0.990       .  S
O3723      H3754   0.990       .  S
O3723      H3768   0.990       .  S
O3725      H3751   0.966       .  S
O3726     Zr3736   2.385       .  S
O3727     Zr3736   2.375       .  S
O3727      H3752   0.966       .  S
C3728      C3776   1.482       .  S
O3731      H3767   0.990       .  S
O3732      C3734   1.280       .  A
O3733      C3734   1.282       .  A
C3734      C4026   1.451       .  S
O3735     Zr5080   2.438       .  S
O3735      H3764   0.990       .  S
Zr3736     O5079   2.438   1_545  S
Zr3736     O3739   2.438   1_545  S
Zr3736     O5084   2.439   1_545  S
Zr3736     O3741   2.410       .  S
O3737      C3742   1.272       .  A
O3738      H3755   0.990       .  S
O3738      H3770   0.990       .  S
O3739      H5100   0.990       .  S
O3740     Zr5080   2.439       .  S
O3740      H3760   0.990       .  S
O3740      H5113   0.989       .  S
O3741      C3742   1.270       .  A
C3742      C4019   1.460       .  S
O3743      H3762   0.990       .  S
O3743      H3766   0.990       .  S
O3744      H3758   0.990       .  S
O3744      H3765   0.990       .  S
O3745      C3749   1.279       .  A
O3746      C3749   1.293       .  A
O3747      H3757   0.990       .  S
O3748      H3761   0.990       .  S
H3756      O5083   0.989       .  S
H3769      O5084   0.989       .  S
C3772      C3773   1.415       .  A
C3772      C3777   1.405       .  A
C3773      C3774   1.410       .  A
C3773      H3778   1.084       .  S
C3774      C3908   1.493       .  S
C3774      C3775   1.399       .  A
C3775      C3776   1.414       .  A
C3775      H3779   1.083       .  S
C3776      C3777   1.404       .  A
C3777      H3780   1.083       .  S
C3781      C3782   1.401       .  A
C3781      C3786   1.403       .  A
C3782      C3783   1.404       .  A
C3782      H3787   1.085       .  S
C3783      C3901   1.459       .  S
C3783      C3784   1.386       .  A
C3784      C3785   1.400       .  A
C3784      H3788   1.083       .  S
C3785      C3786   1.402       .  A
Zr3790     O3791   2.442       .  S
Zr3790     O3792   2.384       .  S
Zr3790     O3793   2.412       .  S
Zr3790     O3796   2.395       .  S
Zr3790     O3798   2.392       .  S
Zr3790     O3799   2.398       .  S
Zr3790     O3800   2.416       .  S
Zr3790     O3801   2.392       .  S
O3791      H3847   0.990       .  S
O3791      H3855   0.990       .  S
O3792      C3812   1.273       .  A
O3793      C3814   1.272       .  A
O3794     Zr3804   2.419       .  S
O3794      C3813   1.277       .  A
O3795     Zr3803   2.404       .  S
O3795      C3814   1.267       .  A
O3796      C3813   1.277       .  A
O3797     Zr3805   2.467       .  S
O3797      C3812   1.292       .  A
O3798     Zr3803   2.411       .  S
O3798     Zr3805   2.361       .  S
O3799     Zr3804   2.391       .  S
O3799     Zr3805   2.353       .  S
O3799      H3834   0.966       .  S
O3800     Zr3803   2.408       .  S
O3800     Zr3820   2.376       .  S
O3800      H3837   0.964       .  S
O3801     Zr3804   2.399       .  S
O3801     Zr3820   2.374       .  S
Zr3802     O3827   2.446       .  S
Zr3802     O3821   2.530       .  S
Zr3802     O3829   2.375       .  S
Zr3802     O3817   2.490       .  S
Zr3802     O3808   2.435       .  S
Zr3802     O3809   2.431       .  S
Zr3802     O3810   2.372       .  S
Zr3802     O3811   2.386       .  S
Zr3803     O3815   2.437   1_655  S
Zr3803     O3816   2.425       .  S
Zr3803     O3809   2.390       .  S
Zr3803     O3810   2.400       .  S
Zr3804     O3806   2.439       .  S
Zr3804     O3828   2.438       .  S
Zr3804     O3830   2.455       .  S
Zr3804     O3808   2.371       .  S
Zr3804     O3811   2.362       .  S
Zr3805     O3831   2.437       .  S
Zr3805     O5176   2.436   1_545  S
Zr3805     O3807   2.437       .  S
Zr3805     O3808   2.405       .  S
Zr3805     O3809   2.403       .  S
O3806      H3843   0.990       .  S
O3807      H3838   0.990       .  S
O3807      H3852   0.990       .  S
O3809      H3835   0.961       .  S
O3810     Zr3820   2.403       .  S
O3811     Zr3820   2.397       .  S
O3811      H3836   0.963       .  S
C3813      C4024   1.453       .  S
O3815      H3851   0.990   1_455  S
O3816      C3818   1.283       .  A
O3817      C3818   1.290       .  A
O3819     Zr3820   2.441       .  S
O3819      H3848   0.990       .  S
Zr3820     O3823   2.433   1_655  S
Zr3820     O3824   2.441       .  S
Zr3820     O3825   2.358       .  S
O3821      C3826   1.301       .  A
O3822      H3839   0.989       .  S
O3822      H3854   0.989       .  S
O3823      H3840   0.990       .  S
O3824      H3844   0.990       .  S
O3824      H3853   0.990       .  S
O3825      C3826   1.268       .  A
O3827      H5190   0.991       .  S
O3827      H3850   0.991       .  S
O3828      H3842   0.990       .  S
O3828      H3849   0.990       .  S
O3829      C3833   1.272       .  A
O3830      C3833   1.291       .  A
O3831      H3841   0.990       .  S
O3832     Zr5149   2.435       .  S
O3832      H3845   0.990       .  S
C3833      C5352   1.460   1_545  S
H3846      O5171   0.991       .  S
C3856      C3893   1.482       .  S
C3856      C3857   1.424       .  A
C3856      C3861   1.396       .  A
C3857      C3858   1.421       .  A
C3857      H3862   1.084       .  S
C3859      C3860   1.401   1_455  A
C3859      H3863   1.084   1_455  S
C3860      C3967   1.460       .  S
C3861      H3864   1.085       .  S
Zr3865     O3866   2.439       .  S
Zr3865     O3867   2.493       .  S
Zr3865     O3868   2.563       .  S
Zr3865     O3871   2.468       .  S
Zr3865     O3873   2.386       .  S
Zr3865     O3874   2.405       .  S
Zr3865     O3875   2.401       .  S
Zr3865     O3876   2.418       .  S
O3866      H3922   0.990       .  S
O3866      H3930   0.990       .  S
O3867      C3887   1.296       .  A
O3868      C3889   1.310       .  A
O3869     Zr3879   2.470       .  S
O3869      C3888   1.293       .  A
O3870     Zr3878   2.381       .  S
O3870      C3889   1.274       .  A
O3871      C3888   1.294       .  A
O3872     Zr3880   2.356       .  S
O3872      C3887   1.270       .  A
O3873     Zr3878   2.408       .  S
O3873     Zr3880   2.397       .  S
O3874     Zr3879   2.375       .  S
O3874     Zr3880   2.377       .  S
O3874      H3909   0.964       .  S
O3875     Zr3878   2.402       .  S
O3875     Zr3895   2.351       .  S
O3875      H3912   0.962       .  S
O3876     Zr3879   2.406       .  S
O3876     Zr3895   2.381       .  S
Zr3877     O3902   2.432       .  S
Zr3877     O3896   2.475       .  S
Zr3877     O3904   2.422       .  S
Zr3877     O3892   2.524       .  S
Zr3877     O3883   2.415       .  S
Zr3877     O3884   2.397       .  S
Zr3877     O3885   2.377       .  S
Zr3877     O3886   2.404       .  S
Zr3878     O3897   2.435       .  S
Zr3878     O3890   2.435       .  S
Zr3878     O3891   2.404       .  S
Zr3878     O3884   2.390       .  S
Zr3878     O3885   2.394       .  S
Zr3879     O3881   2.436       .  S
Zr3879     O3903   2.438       .  S
Zr3879     O3905   2.479       .  S
Zr3879     O3883   2.399       .  S
Zr3879     O3886   2.372       .  S
Zr3880     O3906   2.435       .  S
Zr3880     O3907   2.437       .  S
Zr3880     O3882   2.439       .  S
Zr3880     O3883   2.384       .  S
Zr3880     O3884   2.348       .  S
O3881      H3918   0.990       .  S
O3882      H3913   0.990       .  S
O3882      H3927   0.990       .  S
O3884      H3910   0.961       .  S
O3885     Zr3895   2.400       .  S
O3886     Zr3895   2.378       .  S
O3886      H3911   0.965       .  S
C3887      C4010   1.469       .  S
C3888      C4001   1.507       .  S
C3889      C4015   1.492       .  S
O3890      H3926   0.990       .  S
O3891      C3893   1.279       .  A
O3892      C3893   1.300       .  A
O3894     Zr3895   2.442       .  S
O3894      H3923   0.990       .  S
Zr3895     O3898   2.438       .  S
Zr3895     O3899   2.440       .  S
Zr3895     O3900   2.359       .  S
O3896      C3901   1.291       .  A
O3897      H3914   0.990       .  S
O3897      H3929   0.990       .  S
O3898      H3915   0.990       .  S
O3899      H3919   0.990       .  S
O3899      H3928   0.989       .  S
O3900      C3901   1.271       .  A
O3902      H3921   0.991       .  S
O3902      H3925   0.989       .  S
O3903      H3917   0.990       .  S
O3903      H3924   0.990       .  S
O3904      C3908   1.283       .  A
O3905      C3908   1.295       .  A
O3906      H3916   0.990       .  S
O3907      H3920   0.990       .  S
Zr3931     O3932   2.439       .  S
Zr3931     O3933   2.502       .  S
Zr3931     O3934   2.533       .  S
Zr3931     O3937   2.496       .  S
Zr3931     O3939   2.399       .  S
Zr3931     O3940   2.403       .  S
Zr3931     O3941   2.445       .  S
Zr3931     O3942   2.414       .  S
O3932      H3988   0.990       .  S
O3932      H3996   0.990       .  S
O3933      C3953   1.299       .  A
O3934      C3955   1.295       .  A
O3935     Zr3945   2.437       .  S
O3935      C3954   1.285       .  A
O3936     Zr3944   2.385       .  S
O3936      C3955   1.264       .  A
O3937      C3954   1.299       .  A
O3938     Zr3946   2.396       .  S
O3938      C3953   1.276       .  A
O3939     Zr3944   2.411       .  S
O3939     Zr3946   2.379       .  S
O3940     Zr3945   2.386       .  S
O3940     Zr3946   2.384       .  S
O3940      H3975   0.964       .  S
O3941     Zr3944   2.409       .  S
O3941     Zr3961   2.372       .  S
O3941      H3978   0.965       .  S
O3942     Zr3945   2.396       .  S
O3942     Zr3961   2.385       .  S
Zr3943     O3968   2.446       .  S
Zr3943     O3962   2.449       .  S
Zr3943     O3970   2.398       .  S
Zr3943     O3958   2.434       .  S
Zr3943     O3949   2.401       .  S
Zr3943     O3950   2.413       .  S
Zr3943     O3951   2.373       .  S
Zr3943     O3952   2.390       .  S
Zr3944     O3963   2.439       .  S
Zr3944     O3956   2.430       .  S
Zr3944     O3957   2.408       .  S
Zr3944     O3950   2.389       .  S
Zr3944     O3951   2.385       .  S
Zr3945     O3947   2.435       .  S
Zr3945     O3969   2.439       .  S
Zr3945     O3971   2.451       .  S
Zr3945     O3949   2.380       .  S
Zr3945     O3952   2.390       .  S
Zr3946     O3972   2.437       .  S
Zr3946     O3973   2.438       .  S
Zr3946     O3948   2.439       .  S
Zr3946     O3949   2.379       .  S
Zr3946     O3950   2.387       .  S
O3947      H3984   0.990       .  S
O3948      H3979   0.990       .  S
O3948      H3993   0.990       .  S
O3950      H3976   0.964       .  S
O3951     Zr3961   2.390       .  S
O3952     Zr3961   2.384       .  S
O3952      H3977   0.966       .  S
C3953      C3999   1.495       .  S
O3956      H3992   0.991       .  S
O3957      C3959   1.278       .  A
O3958      C3959   1.281       .  A
C3959      C4028   1.451       .  S
O3960      H3989   0.990       .  S
Zr3961     O3964   2.438       .  S
Zr3961     O3965   2.442   1_655  S
Zr3961     O3966   2.386       .  S
O3962      C3967   1.283       .  A
O3963      H3980   0.990       .  S
O3963      H3995   0.988       .  S
O3964      H3981   0.990   1_655  S
O3965      H3994   0.989   1_455  S
O3966      C3967   1.275       .  A
O3968      H3987   0.991       .  S
O3968      H3991   0.990       .  S
O3969      H3983   0.990       .  S
O3969      H3990   0.990       .  S
O3970      C3974   1.276       .  A
O3971      C3974   1.290       .  A
O3972      H3982   0.990       .  S
O3973      H3986   0.990       .  S
C3997      C3998   1.404       .  A
C3997      C4002   1.412       .  A
C3998      C3999   1.399       .  A
C3998      H4003   1.084       .  S
C3999      C4000   1.424       .  A
C4000      C4001   1.415       .  A
C4000      H4004   1.083       .  S
C4001      C4002   1.408       .  A
C4002      H4005   1.084       .  S
C4006      C4007   1.401       .  A
C4006      C4011   1.409       .  A
C4007      C4008   1.417       .  A
C4007      H5356   1.084       .  S
C4008      C5177   1.458       .  S
C4008      C4009   1.398       .  A
C4009      C4010   1.383       .  A
C4009      H4013   1.084       .  S
C4010      C4011   1.413       .  A
C4011      H4014   1.084       .  S
H4012      C5351   1.084       .  S
C4015      C4016   1.431       .  A
C4015      C4020   1.391       .  A
C4016      C4017   1.428       .  A
C4016      H4021   1.083       .  S
C4017      C4018   1.399       .  A
C4018      C5363   1.408       .  A
C4018      H5366   1.084       .  S
C4019      C5362   1.408   1_545  A
C4019      C5364   1.401   1_545  A
C4020      C5363   1.400       .  A
C4020      H4023   1.085       .  S
H4022      C5362   1.084   1_545  S
C4024      C4025   1.398       .  A
C4024      C4029   1.401       .  A
C4025      C4026   1.390       .  A
C4025      H4030   1.085       .  S
C4026      C4027   1.399       .  A
C4027      C4028   1.398       .  A
C4027      H4031   1.085       .  S
C4028      C4029   1.391       .  A
C4029      H4032   1.084       .  S
C4033      C4103   1.494       .  S
C4034      C4035   1.394       .  A
C4034      H4039   1.086       .  S
C4035      C4318   1.473       .  S
C4036      H4040   1.084       .  S
C4037      C4234   1.498       .  S
C4037      C4038   1.428       .  A
C4038      H4041   1.083       .  S
C4042      C4084   1.471       .  S
C4042      C4043   1.408       .  A
C4042      C4047   1.397       .  A
C4043      C4044   1.403       .  A
C4043      H4048   1.084       .  S
C4044      C4253   1.466       .  S
C4044      C4045   1.401       .  A
C4045      C4046   1.400       .  A
C4045      H4049   1.085       .  S
C4046      C4337   1.459       .  S
C4046      C4047   1.398       .  A
C4047      H4050   1.085       .  S
C4051      C4646   1.475       .  S
C4051      C4724   1.396       .  A
C4051      C4728   1.414       .  A
C4052      C4723   1.396   1_554  A
C4052      C4053   1.395       .  A
C4052      H4729   1.084   1_554  S
C4053      C4232   1.467       .  S
C4053      C4054   1.410       .  A
C4054      C4055   1.395       .  A
C4054      H4058   1.084       .  S
C4055      C4187   1.470       .  S
C4055      C4056   1.404   1_554  A
C4056      C4723   1.414       .  A
C4056      H4731   1.083       .  S
H4057      C4724   1.084       .  S
H4059      C4728   1.084       .  S
Zr4060     O4061   2.441       .  S
Zr4060     O4062   2.468       .  S
Zr4060     O4063   2.430       .  S
Zr4060     O4066   2.491       .  S
Zr4060     O4068   2.404       .  S
Zr4060     O4069   2.403       .  S
Zr4060     O4070   2.443       .  S
Zr4060     O4071   2.409       .  S
O4061      H4117   0.990       .  S
O4061      H4125   0.990       .  S
O4062      C4082   1.288       .  A
O4063      C4084   1.283       .  A
O4064     Zr4074   2.407       .  S
O4064      C4083   1.269       .  A
O4065     Zr4073   2.441       .  S
O4065      C4084   1.282       .  A
O4066      C4083   1.289       .  A
O4067     Zr4075   2.453       .  S
O4067      C4082   1.288       .  A
O4068     Zr4073   2.404       .  S
O4068     Zr4075   2.363       .  S
O4069     Zr4074   2.423       .  S
O4069     Zr4075   2.360       .  S
O4069      H4104   0.966       .  S
O4070     Zr4073   2.419       .  S
O4070     Zr4090   2.373       .  S
O4070      H4107   0.964       .  S
O4071     Zr4074   2.383       .  S
O4071     Zr4090   2.373       .  S
Zr4072     O4091   2.590       .  S
Zr4072     O4099   2.510       .  S
Zr4072     O4087   2.426       .  S
Zr4072     O4079   2.441       .  S
Zr4072     O4080   2.360       .  S
Zr4072     O4081   2.389       .  S
Zr4072     O4078   2.335       .  S
Zr4073     O4092   2.435       .  S
Zr4073     O4085   2.434       .  S
Zr4073     O4086   2.486       .  S
Zr4073     O4079   2.400       .  S
Zr4073     O4080   2.369       .  S
Zr4074     O4098   2.443   1_565  S
Zr4074     O4100   2.419       .  S
Zr4074     O4081   2.404       .  S
Zr4074     O4078   2.273       .  S
Zr4075     O4101   2.437       .  S
Zr4075     O4079   2.380       .  S
Zr4075     O4078   2.328       .  S
O4076      H4113   0.990       .  S
O4077      H4108   0.990       .  S
O4079      H4105   0.961       .  S
O4080     Zr4090   2.389       .  S
O4081     Zr4090   2.399       .  S
O4081      H4106   0.965       .  S
C4082      C5202   1.509   1_554  S
O4085      H4121   0.990       .  S
O4086      C4088   1.297       .  A
O4087      C4088   1.284       .  A
O4089     Zr4090   2.438       .  S
O4089      H4118   0.990   1_565  S
Zr4090     O4093   2.439       .  S
Zr4090     O4095   2.373       .  S
O4091      C4096   1.314       .  A
O4092      H4109   0.990       .  S
O4092      H4124   0.990       .  S
O4093      H4110   0.991       .  S
O4094      H4114   0.990       .  S
O4094      H4123   0.990       .  S
O4095      C4096   1.268       .  A
C4096      C4689   1.503       .  S
O4097      H4116   0.990       .  S
O4097      H4120   0.990       .  S
O4098      H4112   0.991       .  S
O4098      H4119   0.990       .  S
O4099      C4103   1.296       .  A
O4100      C4103   1.283       .  A
O4102      H4115   0.990       .  S
C4126      C4402   1.488       .  S
C4126      C4127   1.398       .  A
C4126      C4131   1.404       .  A
C4127      C4800   1.411       .  A
C4127      H4132   1.084       .  S
C4128      C4172   1.495       .  S
C4128      C4799   1.412       .  A
C4128      C4129   1.412       .  A
C4129      C4130   1.415       .  A
C4129      H4133   1.082       .  S
C4130      C4803   1.411   1_554  A
C4131      C4802   1.412       .  A
C4131      H4134   1.084       .  S
C4135      C4627   1.514       .  S
C4135      C4136   1.417       .  A
C4135      C4140   1.408       .  A
C4136      C4137   1.417       .  A
C4136      H4141   1.084       .  S
C4137      C4167   1.485       .  S
C4137      C4138   1.400       .  A
C4138      C4139   1.412       .  A
C4138      H4142   1.084       .  S
C4139      C4140   1.423       .  A
C4140      H4143   1.083       .  S
Zr4144     O4145   2.439       .  S
Zr4144     O4146   2.482       .  S
Zr4144     O4147   2.471       .  S
Zr4144     O4150   2.548       .  S
Zr4144     O4152   2.403       .  S
Zr4144     O4153   2.391       .  S
Zr4144     O4154   2.428       .  S
Zr4144     O4155   2.377       .  S
O4145      H4201   0.990       .  S
O4145      H4209   0.990       .  S
O4146      C4166   1.295       .  A
O4147      C4168   1.291       .  A
O4148     Zr4158   2.370       .  S
O4148      C4167   1.273       .  A
O4149     Zr4157   2.424       .  S
O4149      C4168   1.287       .  A
O4150      C4167   1.307       .  A
O4151     Zr4159   2.400       .  S
O4151      C4166   1.275       .  A
O4152     Zr4157   2.393       .  S
O4152     Zr4159   2.377       .  S
O4153     Zr4158   2.394       .  S
O4153     Zr4159   2.385       .  S
O4153      H4188   0.966       .  S
O4154     Zr4157   2.420       .  S
O4154     Zr4174   2.378       .  S
O4154      H4191   0.963       .  S
O4155     Zr4158   2.370       .  S
O4155     Zr4174   2.360       .  S
Zr4156     O4181   2.444       .  S
Zr4156     O4175   2.492       .  S
Zr4156     O4183   2.499       .  S
Zr4156     O4171   2.419       .  S
Zr4156     O4162   2.402       .  S
Zr4156     O4163   2.432       .  S
Zr4156     O4164   2.368       .  S
Zr4156     O4165   2.380       .  S
Zr4157     O4176   2.436       .  S
Zr4157     O4169   2.436       .  S
Zr4157     O4170   2.481       .  S
Zr4157     O4163   2.399       .  S
Zr4157     O4164   2.372       .  S
Zr4158     O4160   2.436       .  S
Zr4158     O4182   2.438       .  S
Zr4158     O4184   2.372       .  S
Zr4158     O4162   2.375       .  S
Zr4158     O4165   2.404       .  S
Zr4159     O4185   2.437       .  S
Zr4159     O4186   2.436   1_554  S
Zr4159     O4161   2.438       .  S
Zr4159     O4162   2.389       .  S
Zr4159     O4163   2.385       .  S
O4160      H4197   0.990       .  S
O4161      H4192   0.991   1_554  S
O4161      H4206   0.990       .  S
O4163      H4189   0.964       .  S
O4164     Zr4174   2.374       .  S
O4165     Zr4174   2.392       .  S
O4165      H4190   0.966       .  S
C4166      C4360   1.489       .  S
C4168      C4276   1.485       .  S
O4169      H4205   0.990       .  S
O4170      C4172   1.293       .  A
O4171      C4172   1.285       .  A
O4173     Zr4174   2.439       .  S
O4173      H4202   0.989       .  S
Zr4174     O4177   2.442       .  S
Zr4174     O4178   2.439       .  S
Zr4174     O4179   2.375       .  S
O4175      C4180   1.295       .  A
O4176      H4193   0.990       .  S
O4176      H4208   0.990       .  S
O4177      H4194   0.990       .  S
O4178      H4198   0.990       .  S
O4178      H4207   0.990       .  S
O4179      C4180   1.273       .  A
C4180      C4287   1.485       .  S
O4181      H4200   0.991       .  S
O4181      H4204   0.990       .  S
O4182      H4196   0.990       .  S
O4182      H4203   0.990       .  S
O4183      C4187   1.294       .  A
O4184      C4187   1.272       .  A
O4185      H4195   0.990       .  S
O4186      H4199   0.990       .  S
Zr4210     O4211   2.440       .  S
Zr4210     O4212   2.449       .  S
Zr4210     O4213   2.503       .  S
Zr4210     O4216   2.511       .  S
Zr4210     O4218   2.398       .  S
Zr4210     O4219   2.403       .  S
Zr4210     O4220   2.415       .  S
Zr4210     O4221   2.402       .  S
O4211      H4267   0.990       .  S
O4211      H4275   0.990       .  S
O4212      C4232   1.288       .  A
O4213      C4234   1.298       .  A
O4214     Zr4224   2.400       .  S
O4214      C4233   1.270   1_554  A
O4215     Zr4223   2.443       .  S
O4215      C4234   1.285       .  A
O4216      C4233   1.296   1_554  A
O4217     Zr4225   2.366       .  S
O4217      C4232   1.272       .  A
O4218     Zr4223   2.397       .  S
O4218     Zr4225   2.387       .  S
O4219     Zr4224   2.388       .  S
O4219     Zr4225   2.369       .  S
O4219      H4254   0.966       .  S
O4220     Zr4223   2.411       .  S
O4220     Zr4240   2.395       .  S
O4220      H4257   0.965       .  S
O4221     Zr4224   2.395       .  S
O4221     Zr4240   2.370       .  S
Zr4222     O4247   2.443       .  S
Zr4222     O4241   2.441       .  S
Zr4222     O4249   2.460       .  S
Zr4222     O4237   2.427       .  S
Zr4222     O4228   2.402       .  S
Zr4222     O4229   2.415       .  S
Zr4222     O4230   2.386       .  S
Zr4222     O4231   2.389       .  S
Zr4223     O4242   2.435       .  S
Zr4223     O4235   2.434       .  S
Zr4223     O4236   2.460       .  S
Zr4223     O4229   2.399       .  S
Zr4223     O4230   2.390       .  S
Zr4224     O4226   2.436       .  S
Zr4224     O4248   2.437       .  S
Zr4224     O4250   2.404       .  S
Zr4224     O4228   2.390       .  S
Zr4224     O4231   2.379       .  S
Zr4225     O4251   2.436       .  S
Zr4225     O4252   2.436       .  S
Zr4225     O4227   2.437       .  S
Zr4225     O4228   2.379       .  S
Zr4225     O4229   2.360       .  S
O4226      H4263   0.990       .  S
O4227      H4258   0.990       .  S
O4227      H4272   0.990       .  S
O4229      H4255   0.963       .  S
O4230     Zr4240   2.383       .  S
O4231     Zr4240   2.395       .  S
O4231      H4256   0.966       .  S
C4233      C5350   1.498       .  S
O4235      H4271   0.990       .  S
O4236      C4238   1.292       .  A
O4237      C4238   1.285       .  A
C4238      C4669   1.483       .  S
O4239      H4268   0.990       .  S
Zr4240     O4245   2.379       .  S
O4241      C4246   1.279       .  A
O4242      H4259   0.990       .  S
O4242      H4274   0.990   1_565  S
O4243      H4260   0.990       .  S
O4244      H4264   0.990       .  S
O4245      C4246   1.267       .  A
O4247      H4266   0.990       .  S
O4247      H4270   0.991       .  S
O4248      H4262   0.990       .  S
O4248      H4269   0.990       .  S
O4249      C4253   1.287       .  A
O4250      C4253   1.278       .  A
O4251      H4261   0.990       .  S
O4252      H4265   0.990       .  S
C4276      C4277   1.396       .  A
C4276      C4281   1.408       .  A
C4277      C4278   1.396       .  A
C4277      H4282   1.085       .  S
C4278      C4279   1.398       .  A
C4279      C4280   1.401       .  A
C4279      H4283   1.084       .  S
C4280      C4484   1.485       .  S
C4280      C4281   1.423       .  A
C4281      H4284   1.083       .  S
C4285      C4421   1.488       .  S
C4285      C4286   1.411       .  A
C4285      C4290   1.397       .  A
C4286      C4287   1.413       .  A
C4286      H4291   1.083       .  S
C4287      C4288   1.391       .  A
C4288      C4289   1.406       .  A
C4288      H4292   1.084       .  S
C4289      C4316   1.462       .  S
C4289      C4290   1.404       .  A
C4290      H4293   1.084       .  S
Zr4294     O4295   2.442       .  S
Zr4294     O4296   2.414       .  S
Zr4294     O4297   2.434       .  S
Zr4294     O4300   2.453       .  S
Zr4294     O4302   2.388       .  S
Zr4294     O4303   2.399       .  S
Zr4294     O4304   2.409       .  S
Zr4294     O4305   2.382       .  S
O4295      H4351   0.990       .  S
O4296      C4316   1.279       .  A
O4297      C4318   1.284       .  A
O4298     Zr4308   2.427       .  S
O4298      C4317   1.279       .  A
O4299     Zr4307   2.454       .  S
O4299      C4318   1.288       .  A
O4300      C4317   1.287       .  A
O4301     Zr4309   2.392       .  S
O4301      C4316   1.274       .  A
O4302     Zr4307   2.396       .  S
O4302     Zr4309   2.383       .  S
O4303     Zr4308   2.388       .  S
O4303     Zr4309   2.370       .  S
O4303      H4338   0.966       .  S
O4304     Zr4307   2.417       .  S
O4304     Zr4324   2.391       .  S
O4304      H4341   0.965       .  S
O4305     Zr4308   2.388       .  S
O4305     Zr4324   2.357       .  S
Zr4306     O4331   2.445       .  S
Zr4306     O4325   2.425       .  S
Zr4306     O4333   2.413       .  S
Zr4306     O4321   2.414       .  S
Zr4306     O4312   2.408       .  S
Zr4306     O4313   2.403       .  S
Zr4306     O4314   2.384       .  S
Zr4306     O4315   2.390       .  S
Zr4307     O4326   2.434       .  S
Zr4307     O4319   2.435       .  S
Zr4307     O4320   2.485       .  S
Zr4307     O4313   2.403       .  S
Zr4307     O4314   2.382       .  S
Zr4308     O4310   2.436       .  S
Zr4308     O4332   2.437       .  S
Zr4308     O4334   2.427       .  S
Zr4308     O4312   2.390       .  S
Zr4308     O4315   2.384       .  S
Zr4309     O4335   2.436       .  S
Zr4309     O4336   2.435       .  S
Zr4309     O4311   2.437       .  S
Zr4309     O4312   2.389       .  S
Zr4309     O4313   2.361       .  S
O4310      H4347   0.990       .  S
O4311      H4342   0.990       .  S
O4311      H4356   0.990       .  S
O4313      H4339   0.963       .  S
O4314     Zr4324   2.393       .  S
O4315     Zr4324   2.386       .  S
O4315      H4340   0.966       .  S
C4317      C4453   1.478       .  S
O4319      H4355   0.990       .  S
O4320      C4322   1.296   1_554  A
O4321      C4322   1.282   1_554  A
C4322      C5116   1.487       .  S
O4323      H4352   0.990       .  S
Zr4324     O4329   2.385       .  S
O4325      C4330   1.277       .  A
O4326      H4343   0.990       .  S
O4326      H4358   0.990       .  S
O4327      H4344   0.990       .  S
O4328      H4348   0.990   1_655  S
O4329      C4330   1.263       .  A
O4331      H4350   0.991       .  S
O4331      H4354   0.991       .  S
O4332      H4346   0.990       .  S
O4332      H4353   0.990       .  S
O4333      C4337   1.280       .  A
O4334      C4337   1.283       .  A
O4335      H4345   0.990       .  S
O4336      H4349   0.990       .  S
C4360      C4361   1.395       .  A
C4360      C4365   1.420       .  A
C4361      C4362   1.399       .  A
C4361      H4366   1.084       .  S
C4362      C4363   1.401       .  A
C4363      C5036   1.393       .  A
C4363      H5039   1.085       .  S
C4364      C4498   1.475       .  S
C4364      C5035   1.394       .  A
C4364      C5037   1.418       .  A
C4365      C5036   1.417       .  A
C4365      H5040   1.084       .  S
H4367      C5035   1.085       .  S
H4368      C5037   1.084       .  S
C4369      C4490   1.484       .  S
C4370      C4371   1.422       .  A
C4370      H4375   1.083       .  S
C4371      C4626   1.492       .  S
C4372      C4373   1.403       .  A
C4373      C4401   1.464       .  S
C4373      C4374   1.395       .  A
C4374      H4377   1.086       .  S
Zr4378     O4379   2.443       .  S
Zr4378     O4380   2.466       .  S
Zr4378     O4381   2.464       .  S
Zr4378     O4384   2.426       .  S
Zr4378     O4386   2.390       .  S
Zr4378     O4387   2.395       .  S
Zr4378     O4388   2.433       .  S
Zr4378     O4389   2.416       .  S
O4379      H4435   0.990       .  S
O4379      H4443   0.991       .  S
O4380      C4400   1.290       .  A
O4381      C4402   1.284       .  A
O4382     Zr4392   2.439       .  S
O4382      C4401   1.285       .  A
O4383     Zr4391   2.415       .  S
O4383      C4402   1.275       .  A
O4384      C4401   1.283       .  A
O4385     Zr4393   2.380       .  S
O4385      C4400   1.274       .  A
O4386     Zr4391   2.402       .  S
O4386     Zr4393   2.387       .  S
O4387     Zr4392   2.399       .  S
O4387     Zr4393   2.379       .  S
O4387      H4422   0.966       .  S
O4388     Zr4391   2.396       .  S
O4388     Zr4408   2.382       .  S
O4388      H4425   0.963       .  S
O4389     Zr4392   2.403       .  S
O4389     Zr4408   2.387       .  S
Zr4390     O4415   2.451       .  S
Zr4390     O4409   2.410       .  S
Zr4390     O4417   2.402       .  S
Zr4390     O4405   2.417       .  S
Zr4390     O4396   2.393       .  S
Zr4390     O4397   2.400       .  S
Zr4390     O4398   2.391       .  S
Zr4390     O4399   2.404       .  S
Zr4391     O4410   2.435       .  S
Zr4391     O4403   2.436       .  S
Zr4391     O4404   2.415       .  S
Zr4391     O4397   2.400       .  S
Zr4391     O4398   2.378       .  S
Zr4392     O4394   2.436       .  S
Zr4392     O4416   2.438       .  S
Zr4392     O4418   2.464       .  S
Zr4392     O4396   2.391       .  S
Zr4392     O4399   2.378       .  S
Zr4393     O4419   2.436       .  S
Zr4393     O4420   2.436       .  S
Zr4393     O4395   2.438       .  S
Zr4393     O4396   2.378       .  S
Zr4393     O4397   2.375       .  S
O4394      H4431   0.990       .  S
O4395      H4426   0.990       .  S
O4395      H4440   0.990       .  S
O4397      H4423   0.966       .  S
O4398     Zr4408   2.384       .  S
O4399     Zr4408   2.376       .  S
O4399      H4424   0.966       .  S
C4400      C4448   1.482       .  S
O4403      H4439   0.990       .  S
O4404      C4406   1.280       .  A
O4405      C4406   1.281       .  A
C4406      C4698   1.450       .  S
O4407      H4436   0.990       .  S
Zr4408     O4411   2.438       .  S
Zr4408     O4413   2.411       .  S
O4409      C4414   1.272       .  A
O4410      H4427   0.990       .  S
O4410      H4442   0.990       .  S
O4412      H4432   0.990       .  S
O4413      C4414   1.270       .  A
C4414      C4691   1.459       .  S
O4415      H4434   0.990       .  S
O4415      H4438   0.990       .  S
O4416      H4430   0.990       .  S
O4416      H4437   0.990       .  S
O4417      C4421   1.279       .  A
O4418      C4421   1.293       .  A
O4419      H4429   0.990       .  S
O4420      H4433   0.990       .  S
C4444      C4994   1.485       .  S
C4444      C4445   1.414       .  A
C4444      C4449   1.404       .  A
C4445      C4446   1.410       .  A
C4445      H4450   1.084       .  S
C4446      C4580   1.493       .  S
C4446      C4447   1.399       .  A
C4447      C4448   1.414       .  A
C4447      H4451   1.083       .  S
C4448      C4449   1.403       .  A
C4449      H4452   1.084       .  S
C4453      C4454   1.402       .  A
C4453      C4458   1.403       .  A
C4454      C4455   1.405       .  A
C4454      H4459   1.084       .  S
C4455      C4573   1.461       .  S
C4455      C4456   1.385       .  A
C4456      C4457   1.400       .  A
C4456      H4460   1.083       .  S
C4457      C4458   1.403       .  A
Zr4462     O4463   2.444       .  S
Zr4462     O4464   2.386       .  S
Zr4462     O4465   2.411       .  S
Zr4462     O4468   2.392       .  S
Zr4462     O4470   2.394       .  S
Zr4462     O4471   2.401       .  S
Zr4462     O4472   2.419       .  S
Zr4462     O4473   2.396       .  S
O4463      H4519   0.990       .  S
O4463      H4527   0.990       .  S
O4464      C4484   1.272       .  A
O4465      C4486   1.272       .  A
O4466     Zr4476   2.421       .  S
O4466      C4485   1.278       .  A
O4467     Zr4475   2.406       .  S
O4467      C4486   1.267       .  A
O4468      C4485   1.276       .  A
O4469     Zr4477   2.473       .  S
O4469      C4484   1.292       .  A
O4470     Zr4475   2.414       .  S
O4470     Zr4477   2.364       .  S
O4471     Zr4476   2.387       .  S
O4471     Zr4477   2.349       .  S
O4471      H4506   0.966       .  S
O4472     Zr4475   2.409       .  S
O4472     Zr4492   2.378       .  S
O4472      H4509   0.964       .  S
O4473     Zr4476   2.398       .  S
O4473     Zr4492   2.377       .  S
Zr4474     O4499   2.450       .  S
Zr4474     O4493   2.537       .  S
Zr4474     O4501   2.368       .  S
Zr4474     O4489   2.497       .  S
Zr4474     O4481   2.426       .  S
Zr4474     O4482   2.370       .  S
Zr4474     O4483   2.384       .  S
Zr4474     O4480   2.349       .  S
Zr4475     O4487   2.438   1_655  S
Zr4475     O4488   2.425       .  S
Zr4475     O4481   2.395       .  S
Zr4475     O4482   2.403       .  S
Zr4476     O4478   2.440       .  S
Zr4476     O4500   2.441       .  S
Zr4476     O4502   2.447       .  S
Zr4476     O4483   2.358       .  S
Zr4476     O4480   2.281       .  S
Zr4477     O4503   2.437       .  S
Zr4477     O4479   2.443       .  S
Zr4477     O4481   2.395       .  S
Zr4477     O4480   2.329       .  S
O4478      H4515   0.990       .  S
O4479      H4510   0.990       .  S
O4479      H4524   0.990       .  S
O4481      H4507   0.961       .  S
O4482     Zr4492   2.404       .  S
O4483     Zr4492   2.398       .  S
O4483      H4508   0.963       .  S
C4485      C4696   1.453       .  S
O4487      H4523   0.990   1_455  S
O4488      C4490   1.283       .  A
O4489      C4490   1.292       .  A
O4491     Zr4492   2.443       .  S
O4491      H4520   0.990       .  S
Zr4492     O4495   2.435   1_655  S
Zr4492     O4496   2.440       .  S
Zr4492     O4497   2.359       .  S
O4493      C4498   1.302       .  A
O4494      H4511   0.989       .  S
O4494      H4526   0.989       .  S
O4495      H4512   0.990       .  S
O4496      H4516   0.990       .  S
O4496      H4525   0.990       .  S
O4497      C4498   1.268       .  A
O4499      H4522   0.991       .  S
O4500      H4514   0.991       .  S
O4500      H4521   0.990       .  S
O4501      C4505   1.270       .  A
O4502      C4505   1.289       .  A
O4503      H4513   0.990       .  S
O4504      H4517   0.990       .  S
C4528      C4565   1.483       .  S
C4528      C4529   1.424       .  A
C4528      C4533   1.396       .  A
C4529      C4530   1.421       .  A
C4529      H4534   1.083       .  S
C4530      C4754   1.510       .  S
C4531      C4532   1.402   1_455  A
C4531      H4535   1.084   1_455  S
C4532      C4639   1.461       .  S
C4533      H4536   1.085       .  S
Zr4537     O4538   2.440       .  S
Zr4537     O4539   2.490       .  S
Zr4537     O4540   2.566       .  S
Zr4537     O4543   2.468       .  S
Zr4537     O4545   2.386       .  S
Zr4537     O4546   2.407       .  S
Zr4537     O4547   2.401       .  S
Zr4537     O4548   2.419       .  S
O4538      H4594   0.990       .  S
O4538      H4602   0.990       .  S
O4539      C4559   1.296       .  A
O4540      C4561   1.311       .  A
O4541     Zr4551   2.472       .  S
O4541      C4560   1.293       .  A
O4542     Zr4550   2.386       .  S
O4542      C4561   1.275       .  A
O4543      C4560   1.294       .  A
O4544     Zr4552   2.360       .  S
O4544      C4559   1.270       .  A
O4545     Zr4550   2.409       .  S
O4545     Zr4552   2.397       .  S
O4546     Zr4551   2.375       .  S
O4546     Zr4552   2.376       .  S
O4546      H4581   0.964       .  S
O4547     Zr4550   2.403       .  S
O4547     Zr4567   2.353       .  S
O4547      H4584   0.962       .  S
O4548     Zr4551   2.407       .  S
O4548     Zr4567   2.381       .  S
Zr4549     O4574   2.434       .  S
Zr4549     O4568   2.479       .  S
Zr4549     O4576   2.424       .  S
Zr4549     O4564   2.522       .  S
Zr4549     O4555   2.417       .  S
Zr4549     O4556   2.399       .  S
Zr4549     O4557   2.378       .  S
Zr4549     O4558   2.402       .  S
Zr4550     O4569   2.436       .  S
Zr4550     O4562   2.435       .  S
Zr4550     O4563   2.411       .  S
Zr4550     O4556   2.388       .  S
Zr4550     O4557   2.396       .  S
Zr4551     O4553   2.436       .  S
Zr4551     O4575   2.438       .  S
Zr4551     O4577   2.479       .  S
Zr4551     O4555   2.401       .  S
Zr4551     O4558   2.371       .  S
Zr4552     O4578   2.434       .  S
Zr4552     O4579   2.438       .  S
Zr4552     O4554   2.438       .  S
Zr4552     O4555   2.387       .  S
Zr4552     O4556   2.350       .  S
O4553      H4590   0.990       .  S
O4554      H4585   0.990       .  S
O4554      H4599   0.990       .  S
O4556      H4582   0.961       .  S
O4557     Zr4567   2.401       .  S
O4558     Zr4567   2.378       .  S
O4558      H4583   0.965       .  S
C4559      C4682   1.469       .  S
C4560      C4673   1.508       .  S
C4561      C4687   1.495       .  S
O4562      H4598   0.990       .  S
O4563      C4565   1.280       .  A
O4564      C4565   1.299       .  A
O4566     Zr4567   2.442       .  S
O4566      H4595   0.990       .  S
Zr4567     O4570   2.437       .  S
Zr4567     O4571   2.440       .  S
Zr4567     O4572   2.359       .  S
O4568      C4573   1.292       .  A
O4569      H4586   0.990       .  S
O4569      H4601   0.990       .  S
O4570      H4587   0.990       .  S
O4571      H4591   0.990       .  S
O4571      H4600   0.989       .  S
O4572      C4573   1.271       .  A
O4574      H4593   0.991       .  S
O4574      H4597   0.989       .  S
O4575      H4589   0.990       .  S
O4575      H4596   0.990       .  S
O4576      C4580   1.283       .  A
O4577      C4580   1.295       .  A
O4578      H4588   0.990       .  S
O4579      H4592   0.990       .  S
Zr4603     O4604   2.438       .  S
Zr4603     O4605   2.503       .  S
Zr4603     O4606   2.538       .  S
Zr4603     O4609   2.495       .  S
Zr4603     O4611   2.399       .  S
Zr4603     O4612   2.402       .  S
Zr4603     O4613   2.442       .  S
Zr4603     O4614   2.415       .  S
O4604      H4660   0.990       .  S
O4604      H4668   0.990       .  S
O4605      C4625   1.299       .  A
O4606      C4627   1.296       .  A
O4607     Zr4617   2.440       .  S
O4607      C4626   1.285       .  A
O4608     Zr4616   2.384       .  S
O4608      C4627   1.264       .  A
O4609      C4626   1.299       .  A
O4610     Zr4618   2.397       .  S
O4610      C4625   1.277       .  A
O4611     Zr4616   2.412       .  S
O4611     Zr4618   2.379       .  S
O4612     Zr4617   2.386       .  S
O4612     Zr4618   2.384       .  S
O4612      H4647   0.964       .  S
O4613     Zr4616   2.409       .  S
O4613     Zr4633   2.373       .  S
O4613      H4650   0.964       .  S
O4614     Zr4617   2.396       .  S
O4614     Zr4633   2.386       .  S
Zr4615     O4640   2.446       .  S
Zr4615     O4634   2.449       .  S
Zr4615     O4642   2.401       .  S
Zr4615     O4630   2.433       .  S
Zr4615     O4621   2.400       .  S
Zr4615     O4622   2.414       .  S
Zr4615     O4623   2.371       .  S
Zr4615     O4624   2.390       .  S
Zr4616     O4635   2.439       .  S
Zr4616     O4628   2.431       .  S
Zr4616     O4629   2.408       .  S
Zr4616     O4622   2.388       .  S
Zr4616     O4623   2.385       .  S
Zr4617     O4619   2.437       .  S
Zr4617     O4641   2.440       .  S
Zr4617     O4643   2.449       .  S
Zr4617     O4621   2.380       .  S
Zr4617     O4624   2.391       .  S
Zr4618     O4644   2.436       .  S
Zr4618     O4645   2.437       .  S
Zr4618     O4620   2.439       .  S
Zr4618     O4621   2.379       .  S
Zr4618     O4622   2.386       .  S
O4619      H4656   0.990       .  S
O4620      H4651   0.990       .  S
O4620      H4665   0.990       .  S
O4622      H4648   0.964       .  S
O4623     Zr4633   2.390       .  S
O4624     Zr4633   2.384       .  S
O4624      H4649   0.966       .  S
C4625      C4671   1.495       .  S
O4628      H4664   0.991       .  S
O4629      C4631   1.277       .  A
O4630      C4631   1.281       .  A
C4631      C4700   1.450       .  S
O4632      H4661   0.990       .  S
Zr4633     O4636   2.438       .  S
Zr4633     O4637   2.443   1_655  S
Zr4633     O4638   2.386       .  S
O4634      C4639   1.283       .  A
O4635      H4652   0.990       .  S
O4635      H4667   0.988       .  S
O4636      H4653   0.990   1_655  S
O4637      H4666   0.989   1_455  S
O4638      C4639   1.275       .  A
O4640      H4659   0.991       .  S
O4640      H4663   0.990       .  S
O4641      H4655   0.990       .  S
O4641      H4662   0.990       .  S
O4642      C4646   1.277       .  A
O4643      C4646   1.290       .  A
O4644      H4654   0.990       .  S
O4645      H4658   0.990       .  S
C4669      C4670   1.404       .  A
C4669      C4674   1.412       .  A
C4670      C4671   1.400       .  A
C4670      H4675   1.084       .  S
C4671      C4672   1.424       .  A
C4672      C4673   1.415       .  A
C4672      H4676   1.083       .  S
C4673      C4674   1.409       .  A
C4674      H4677   1.084       .  S
C4678      C4905   1.498       .  S
C4678      C4679   1.402       .  A
C4678      C4683   1.410       .  A
C4679      C4680   1.418       .  A
C4680      C4681   1.397       .  A
C4681      C4682   1.383       .  A
C4681      H4685   1.084       .  S
C4682      C4683   1.413       .  A
C4683      H4686   1.084       .  S
C4687      C4688   1.432       .  A
C4687      C4692   1.393       .  A
C4688      C4689   1.429       .  A
C4688      H4693   1.083       .  S
C4689      C4690   1.399       .  A
C4692      H4695   1.085       .  S
C4696      C4697   1.397       .  A
C4696      C4701   1.401       .  A
C4697      C4698   1.391       .  A
C4697      H4702   1.085       .  S
C4698      C4699   1.398       .  A
C4699      C4700   1.398       .  A
C4699      H4703   1.085       .  S
C4700      C4701   1.390       .  A
C4701      H4704   1.084       .  S
C4705      C4775   1.495       .  S
C4706      C4707   1.395       .  A
C4706      H4711   1.086       .  S
C4707      C4990   1.472       .  S
C4708      H4712   1.084       .  S
C4709      C4906   1.499       .  S
C4709      C4710   1.428       .  A
C4710      H4713   1.083       .  S
C4714      C4756   1.471       .  S
C4714      C4715   1.409       .  A
C4714      C4719   1.396       .  A
C4715      C4716   1.404       .  A
C4715      H4720   1.084       .  S
C4716      C4925   1.468       .  S
C4716      C4717   1.401       .  A
C4717      C4718   1.400       .  A
C4717      H4721   1.085       .  S
C4718      C5009   1.459       .  S
C4718      C4719   1.398       .  A
C4719      H4722   1.085       .  S
C4723      C5318   1.475       .  S
C4724      C4725   1.395       .  A
C4725      C4904   1.468       .  S
C4725      C4726   1.410       .  A
C4726      C4727   1.395       .  A
C4726      H4730   1.084       .  S
C4727      C4859   1.469       .  S
C4727      C4728   1.404       .  A
Zr4732     O4733   2.441       .  S
Zr4732     O4734   2.467       .  S
Zr4732     O4735   2.428       .  S
Zr4732     O4738   2.492       .  S
Zr4732     O4740   2.405       .  S
Zr4732     O4741   2.404       .  S
Zr4732     O4742   2.442       .  S
Zr4732     O4743   2.408       .  S
O4733      H4789   0.990       .  S
O4733      H4797   0.990       .  S
O4734      C4754   1.288       .  A
O4735      C4756   1.282       .  A
O4736     Zr4746   2.406       .  S
O4736      C4755   1.268       .  A
O4737     Zr4745   2.442       .  S
O4737      C4756   1.283       .  A
O4738      C4755   1.289       .  A
O4739     Zr4747   2.457       .  S
O4739      C4754   1.288       .  A
O4740     Zr4745   2.404       .  S
O4740     Zr4747   2.361       .  S
O4741     Zr4746   2.423       .  S
O4741     Zr4747   2.360       .  S
O4741      H4776   0.966       .  S
O4742     Zr4745   2.419       .  S
O4742     Zr4762   2.371       .  S
O4742      H4779   0.964       .  S
O4743     Zr4746   2.383       .  S
O4743     Zr4762   2.374       .  S
Zr4744     O4763   2.591       .  S
Zr4744     O4771   2.511       .  S
Zr4744     O4759   2.423       .  S
Zr4744     O4751   2.443       .  S
Zr4744     O4752   2.360       .  S
Zr4744     O4753   2.387       .  S
Zr4744     O4750   2.336       .  S
Zr4745     O4764   2.434       .  S
Zr4745     O4757   2.435       .  S
Zr4745     O4758   2.488       .  S
Zr4745     O4751   2.399       .  S
Zr4745     O4752   2.369       .  S
Zr4746     O4770   2.442   1_565  S
Zr4746     O4772   2.417       .  S
Zr4746     O4753   2.405       .  S
Zr4746     O4750   2.273       .  S
Zr4747     O4773   2.437       .  S
Zr4747     O4751   2.381       .  S
Zr4747     O4750   2.330       .  S
O4748      H4785   0.990       .  S
O4749      H4780   0.990       .  S
O4751      H4777   0.961       .  S
O4752     Zr4762   2.388       .  S
O4753     Zr4762   2.398       .  S
O4753      H4778   0.965       .  S
O4757      H4793   0.990       .  S
O4758      C4760   1.297       .  A
O4759      C4760   1.284       .  A
O4761     Zr4762   2.437       .  S
O4761      H4790   0.990   1_565  S
Zr4762     O4765   2.439       .  S
Zr4762     O4767   2.375       .  S
O4763      C4768   1.314       .  A
O4764      H4781   0.990       .  S
O4764      H4796   0.990       .  S
O4765      H4782   0.991       .  S
O4766      H4786   0.990       .  S
O4766      H4795   0.989       .  S
O4767      C4768   1.268       .  A
C4768      C5361   1.504       .  S
O4769      H4788   0.990       .  S
O4769      H4792   0.990       .  S
O4770      H4784   0.991       .  S
O4770      H4791   0.990       .  S
O4771      C4775   1.296       .  A
O4772      C4775   1.283       .  A
O4774      H4787   0.990       .  S
C4798      C5074   1.487       .  S
C4798      C4799   1.399   1_556  A
C4798      C4803   1.403       .  A
C4799      H4804   1.084       .  S
C4800      C4844   1.494       .  S
C4800      C4801   1.412       .  A
C4801      C4802   1.415       .  A
C4801      H4805   1.082       .  S
C4803      H4806   1.084       .  S
C4807      C5299   1.513       .  S
C4807      C4808   1.417       .  A
C4807      C4812   1.408       .  A
C4808      C4809   1.417       .  A
C4808      H4813   1.084       .  S
C4809      C4839   1.485       .  S
C4809      C4810   1.400       .  A
C4810      C4811   1.412       .  A
C4810      H4814   1.084       .  S
C4811      C4812   1.422       .  A
C4812      H4815   1.083       .  S
Zr4816     O4817   2.439       .  S
Zr4816     O4818   2.481       .  S
Zr4816     O4819   2.469       .  S
Zr4816     O4822   2.548       .  S
Zr4816     O4824   2.403       .  S
Zr4816     O4825   2.392       .  S
Zr4816     O4826   2.428       .  S
Zr4816     O4827   2.376       .  S
O4817      H4873   0.990       .  S
O4817      H4881   0.990       .  S
O4818      C4838   1.295       .  A
O4819      C4840   1.291       .  A
O4820     Zr4830   2.372       .  S
O4820      C4839   1.273       .  A
O4821     Zr4829   2.422       .  S
O4821      C4840   1.286       .  A
O4822      C4839   1.307       .  A
O4823     Zr4831   2.401       .  S
O4823      C4838   1.276       .  A
O4824     Zr4829   2.393       .  S
O4824     Zr4831   2.377       .  S
O4825     Zr4830   2.394       .  S
O4825     Zr4831   2.387       .  S
O4825      H4860   0.966       .  S
O4826     Zr4829   2.420       .  S
O4826     Zr4846   2.377       .  S
O4826      H4863   0.963       .  S
O4827     Zr4830   2.369       .  S
O4827     Zr4846   2.361       .  S
Zr4828     O4853   2.444       .  S
Zr4828     O4847   2.490       .  S
Zr4828     O4855   2.498       .  S
Zr4828     O4843   2.418       .  S
Zr4828     O4834   2.400       .  S
Zr4828     O4835   2.431       .  S
Zr4828     O4836   2.368       .  S
Zr4828     O4837   2.380       .  S
Zr4829     O4848   2.436       .  S
Zr4829     O4841   2.436       .  S
Zr4829     O4842   2.481       .  S
Zr4829     O4835   2.398       .  S
Zr4829     O4836   2.371       .  S
Zr4830     O4832   2.436       .  S
Zr4830     O4854   2.438       .  S
Zr4830     O4856   2.372       .  S
Zr4830     O4834   2.374       .  S
Zr4830     O4837   2.405       .  S
Zr4831     O4857   2.436       .  S
Zr4831     O4858   2.437       .  S
Zr4831     O4833   2.439       .  S
Zr4831     O4834   2.388       .  S
Zr4831     O4835   2.381       .  S
O4832      H4869   0.990       .  S
O4833      H4864   0.991       .  S
O4833      H4878   0.990       .  S
O4835      H4861   0.964       .  S
O4836     Zr4846   2.374       .  S
O4837     Zr4846   2.392       .  S
O4837      H4862   0.965       .  S
C4838      C5032   1.489       .  S
C4840      C4948   1.482       .  S
O4841      H4877   0.990       .  S
O4842      C4844   1.293       .  A
O4843      C4844   1.285       .  A
O4845     Zr4846   2.439       .  S
O4845      H4874   0.989       .  S
Zr4846     O4849   2.441       .  S
Zr4846     O4850   2.439       .  S
Zr4846     O4851   2.371       .  S
O4847      C4852   1.295       .  A
O4848      H4865   0.990       .  S
O4848      H4880   0.990       .  S
O4849      H4866   0.990       .  S
O4850      H4870   0.990       .  S
O4850      H4879   0.990       .  S
O4851      C4852   1.272       .  A
C4852      C4959   1.483       .  S
O4853      H4872   0.991       .  S
O4853      H4876   0.990       .  S
O4854      H4868   0.990       .  S
O4854      H4875   0.990       .  S
O4855      C4859   1.294       .  A
O4856      C4859   1.272       .  A
O4857      H4867   0.990       .  S
O4858      H4871   0.990       .  S
Zr4882     O4883   2.440       .  S
Zr4882     O4884   2.449       .  S
Zr4882     O4885   2.505       .  S
Zr4882     O4888   2.513       .  S
Zr4882     O4890   2.398       .  S
Zr4882     O4891   2.403       .  S
Zr4882     O4892   2.415       .  S
Zr4882     O4893   2.401       .  S
O4883      H4939   0.990       .  S
O4883      H4947   0.990       .  S
O4884      C4904   1.288       .  A
O4885      C4906   1.298       .  A
O4886     Zr4896   2.399       .  S
O4886      C4905   1.270       .  A
O4887     Zr4895   2.443       .  S
O4887      C4906   1.285       .  A
O4888      C4905   1.296       .  A
O4889     Zr4897   2.367       .  S
O4889      C4904   1.272       .  A
O4890     Zr4895   2.398       .  S
O4890     Zr4897   2.387       .  S
O4891     Zr4896   2.388       .  S
O4891     Zr4897   2.369       .  S
O4891      H4926   0.966       .  S
O4892     Zr4895   2.412       .  S
O4892     Zr4912   2.396       .  S
O4892      H4929   0.965       .  S
O4893     Zr4896   2.395       .  S
O4893     Zr4912   2.370       .  S
Zr4894     O4919   2.443       .  S
Zr4894     O4913   2.441       .  S
Zr4894     O4921   2.460       .  S
Zr4894     O4909   2.425       .  S
Zr4894     O4900   2.402       .  S
Zr4894     O4901   2.418       .  S
Zr4894     O4902   2.387       .  S
Zr4894     O4903   2.388       .  S
Zr4895     O4914   2.434       .  S
Zr4895     O4907   2.434       .  S
Zr4895     O4908   2.462       .  S
Zr4895     O4901   2.399       .  S
Zr4895     O4902   2.390       .  S
Zr4896     O4898   2.434       .  S
Zr4896     O4920   2.436       .  S
Zr4896     O4922   2.406       .  S
Zr4896     O4900   2.389       .  S
Zr4896     O4903   2.378       .  S
Zr4897     O4923   2.436       .  S
Zr4897     O4924   2.435       .  S
Zr4897     O4899   2.438       .  S
Zr4897     O4900   2.380       .  S
Zr4897     O4901   2.360       .  S
O4898      H4935   0.990       .  S
O4899      H4930   0.990       .  S
O4899      H4944   0.990       .  S
O4901      H4927   0.963       .  S
O4902     Zr4912   2.384       .  S
O4903     Zr4912   2.396       .  S
O4903      H4928   0.966       .  S
O4907      H4943   0.990       .  S
O4908      C4910   1.292       .  A
O4909      C4910   1.284       .  A
C4910      C5341   1.483       .  S
O4911      H4940   0.990       .  S
Zr4912     O4917   2.379   1_565  S
O4913      C4918   1.279       .  A
O4914      H4931   0.990       .  S
O4914      H4946   0.990   1_565  S
O4915      H4932   0.990       .  S
O4916      H4936   0.990       .  S
O4917      C4918   1.267   1_545  A
O4919      H4938   0.990       .  S
O4919      H4942   0.990       .  S
O4920      H4934   0.990       .  S
O4920      H4941   0.990       .  S
O4921      C4925   1.287       .  A
O4922      C4925   1.279       .  A
O4923      H4933   0.990       .  S
O4924      H4937   0.990       .  S
C4948      C4949   1.396       .  A
C4948      C4953   1.406       .  A
C4949      C4950   1.396       .  A
C4949      H4954   1.085       .  S
C4950      C4951   1.397       .  A
C4951      C4952   1.401       .  A
C4951      H4955   1.084       .  S
C4952      C5156   1.482       .  S
C4952      C4953   1.421       .  A
C4953      H4956   1.083       .  S
C4957      C5093   1.486       .  S
C4957      C4958   1.410       .  A
C4957      C4962   1.396       .  A
C4958      C4959   1.412       .  A
C4958      H4963   1.083       .  S
C4959      C4960   1.390       .  A
C4960      C4961   1.405       .  A
C4960      H4964   1.084       .  S
C4961      C4988   1.460       .  S
C4961      C4962   1.403       .  A
C4962      H4965   1.084       .  S
Zr4966     O4967   2.442       .  S
Zr4966     O4968   2.411       .  S
Zr4966     O4969   2.435       .  S
Zr4966     O4972   2.455       .  S
Zr4966     O4974   2.388       .  S
Zr4966     O4975   2.400       .  S
Zr4966     O4976   2.408       .  S
Zr4966     O4977   2.379       .  S
O4967      H5023   0.990       .  S
O4968      C4988   1.279       .  A
O4969      C4990   1.284       .  A
O4970     Zr4980   2.425       .  S
O4970      C4989   1.279       .  A
O4971     Zr4979   2.453       .  S
O4971      C4990   1.288       .  A
O4972      C4989   1.288       .  A
O4973     Zr4981   2.392       .  S
O4973      C4988   1.274       .  A
O4974     Zr4979   2.395       .  S
O4974     Zr4981   2.381       .  S
O4975     Zr4980   2.386       .  S
O4975     Zr4981   2.371       .  S
O4975      H5010   0.966       .  S
O4976     Zr4979   2.416       .  S
O4976     Zr4996   2.389       .  S
O4976      H5013   0.965       .  S
O4977     Zr4980   2.388       .  S
O4977     Zr4996   2.356       .  S
Zr4978     O5003   2.445       .  S
Zr4978     O4997   2.427       .  S
Zr4978     O5005   2.412       .  S
Zr4978     O4993   2.413       .  S
Zr4978     O4984   2.410       .  S
Zr4978     O4985   2.402       .  S
Zr4978     O4986   2.383       .  S
Zr4978     O4987   2.390       .  S
Zr4979     O4998   2.434       .  S
Zr4979     O4991   2.434       .  S
Zr4979     O4992   2.480       .  S
Zr4979     O4985   2.402       .  S
Zr4979     O4986   2.382       .  S
Zr4980     O4982   2.435       .  S
Zr4980     O5004   2.436       .  S
Zr4980     O5006   2.426       .  S
Zr4980     O4984   2.390       .  S
Zr4980     O4987   2.383       .  S
Zr4981     O5007   2.436       .  S
Zr4981     O5008   2.435       .  S
Zr4981     O4983   2.438       .  S
Zr4981     O4984   2.393       .  S
Zr4981     O4985   2.360       .  S
O4982      H5019   0.990       .  S
O4983      H5014   0.990       .  S
O4983      H5028   0.990       .  S
O4985      H5011   0.963       .  S
O4986     Zr4996   2.391       .  S
O4987     Zr4996   2.387       .  S
O4987      H5012   0.966       .  S
C4989      C5125   1.478       .  S
O4991      H5027   0.990       .  S
O4992      C4994   1.296       .  A
O4993      C4994   1.283       .  A
O4995      H5024   0.991       .  S
Zr4996     O5001   2.384       .  S
O4997      C5002   1.278       .  A
O4998      H5015   0.990       .  S
O4998      H5030   0.990       .  S
O4999      H5016   0.990       .  S
O5000      H5020   0.990   1_655  S
O5001      C5002   1.263       .  A
O5003      H5022   0.991       .  S
O5003      H5026   0.991       .  S
O5004      H5018   0.990       .  S
O5004      H5025   0.990       .  S
O5005      C5009   1.280       .  A
O5006      C5009   1.282       .  A
O5007      H5017   0.990       .  S
O5008      H5021   0.990       .  S
C5032      C5033   1.396       .  A
C5032      C5037   1.421       .  A
C5033      C5034   1.399       .  A
C5033      H5038   1.084       .  S
C5034      C5035   1.402       .  A
C5036      C5170   1.473   1_554  S
C5041      C5162   1.483       .  S
C5042      C5043   1.421       .  A
C5042      H5047   1.083       .  S
C5043      C5298   1.491       .  S
C5044      C5045   1.403       .  A
C5045      C5073   1.464       .  S
C5045      C5046   1.394       .  A
C5046      H5049   1.086       .  S
Zr5050     O5051   2.442       .  S
Zr5050     O5052   2.466       .  S
Zr5050     O5053   2.465       .  S
Zr5050     O5056   2.426       .  S
Zr5050     O5058   2.388       .  S
Zr5050     O5059   2.394       .  S
Zr5050     O5060   2.433       .  S
Zr5050     O5061   2.416       .  S
O5051      H5107   0.990       .  S
O5051      H5115   0.991       .  S
O5052      C5072   1.290       .  A
O5053      C5074   1.284       .  A
O5054     Zr5064   2.438       .  S
O5054      C5073   1.285       .  A
O5055     Zr5063   2.413       .  S
O5055      C5074   1.274       .  A
O5056      C5073   1.283       .  A
O5057     Zr5065   2.382       .  S
O5057      C5072   1.275       .  A
O5058     Zr5063   2.401       .  S
O5058     Zr5065   2.387       .  S
O5059     Zr5064   2.397       .  S
O5059     Zr5065   2.380       .  S
O5059      H5094   0.966       .  S
O5060     Zr5063   2.396       .  S
O5060     Zr5080   2.382       .  S
O5060      H5097   0.964       .  S
O5061     Zr5064   2.403       .  S
O5061     Zr5080   2.389       .  S
Zr5062     O5087   2.449       .  S
Zr5062     O5081   2.408       .  S
Zr5062     O5089   2.399       .  S
Zr5062     O5077   2.422       .  S
Zr5062     O5068   2.393       .  S
Zr5062     O5069   2.398       .  S
Zr5062     O5070   2.391       .  S
Zr5062     O5071   2.407       .  S
Zr5063     O5082   2.435       .  S
Zr5063     O5075   2.435       .  S
Zr5063     O5076   2.412       .  S
Zr5063     O5069   2.399       .  S
Zr5063     O5070   2.380       .  S
Zr5064     O5066   2.436       .  S
Zr5064     O5088   2.438       .  S
Zr5064     O5090   2.461       .  S
Zr5064     O5068   2.389       .  S
Zr5064     O5071   2.380       .  S
Zr5065     O5091   2.437       .  S
Zr5065     O5092   2.436       .  S
Zr5065     O5067   2.437       .  S
Zr5065     O5068   2.376       .  S
Zr5065     O5069   2.376       .  S
O5066      H5103   0.990       .  S
O5067      H5098   0.990       .  S
O5067      H5112   0.990       .  S
O5069      H5095   0.965       .  S
O5070     Zr5080   2.384       .  S
O5071     Zr5080   2.375       .  S
O5071      H5096   0.966       .  S
C5072      C5120   1.483       .  S
O5075      H5111   0.990       .  S
O5076      C5078   1.279       .  A
O5077      C5078   1.282       .  A
C5078      C5370   1.451       .  S
O5079      H5108   0.990       .  S
Zr5080     O5083   2.439       .  S
Zr5080     O5085   2.411       .  S
O5081      C5086   1.271       .  A
O5082      H5099   0.990       .  S
O5082      H5114   0.990       .  S
O5084      H5104   0.990       .  S
O5085      C5086   1.270       .  A
C5086      C5363   1.458       .  S
O5087      H5106   0.990       .  S
O5087      H5110   0.990       .  S
O5088      H5102   0.990       .  S
O5088      H5109   0.990       .  S
O5089      C5093   1.279       .  A
O5090      C5093   1.292       .  A
O5091      H5101   0.990       .  S
O5092      H5105   0.990       .  S
C5116      C5117   1.414       .  A
C5116      C5121   1.405       .  A
C5117      C5118   1.411       .  A
C5117      H5122   1.084       .  S
C5118      C5252   1.493       .  S
C5118      C5119   1.399       .  A
C5119      C5120   1.414       .  A
C5119      H5123   1.083       .  S
C5120      C5121   1.404       .  A
C5121      H5124   1.083       .  S
C5125      C5126   1.402       .  A
C5125      C5130   1.403       .  A
C5126      C5127   1.405       .  A
C5126      H5131   1.084       .  S
C5127      C5245   1.460       .  S
C5127      C5128   1.385       .  A
C5128      C5129   1.400       .  A
C5128      H5132   1.083       .  S
C5129      C5130   1.402       .  A
Zr5134     O5135   2.442       .  S
Zr5134     O5136   2.384       .  S
Zr5134     O5137   2.414       .  S
Zr5134     O5140   2.395       .  S
Zr5134     O5142   2.391       .  S
Zr5134     O5143   2.398       .  S
Zr5134     O5144   2.417       .  S
Zr5134     O5145   2.393       .  S
O5135      H5191   0.990       .  S
O5135      H5199   0.990       .  S
O5136      C5156   1.273       .  A
O5137      C5158   1.273       .  A
O5138     Zr5148   2.419       .  S
O5138      C5157   1.278       .  A
O5139     Zr5147   2.405       .  S
O5139      C5158   1.267       .  A
O5140      C5157   1.277       .  A
O5141     Zr5149   2.463       .  S
O5141      C5156   1.291       .  A
O5142     Zr5147   2.411       .  S
O5142     Zr5149   2.362       .  S
O5143     Zr5148   2.391       .  S
O5143     Zr5149   2.352       .  S
O5143      H5178   0.966       .  S
O5144     Zr5147   2.409       .  S
O5144     Zr5164   2.376       .  S
O5144      H5181   0.964       .  S
O5145     Zr5148   2.398       .  S
O5145     Zr5164   2.373       .  S
Zr5146     O5171   2.445       .  S
Zr5146     O5165   2.530       .  S
Zr5146     O5173   2.376       .  S
Zr5146     O5161   2.492       .  S
Zr5146     O5152   2.435       .  S
Zr5146     O5153   2.430       .  S
Zr5146     O5154   2.372       .  S
Zr5146     O5155   2.387       .  S
Zr5147     O5159   2.438   1_655  S
Zr5147     O5160   2.426       .  S
Zr5147     O5153   2.391       .  S
Zr5147     O5154   2.400       .  S
Zr5148     O5150   2.439       .  S
Zr5148     O5172   2.440       .  S
Zr5148     O5174   2.452       .  S
Zr5148     O5152   2.372       .  S
Zr5148     O5155   2.362       .  S
Zr5149     O5175   2.437       .  S
Zr5149     O5151   2.437       .  S
Zr5149     O5152   2.403       .  S
Zr5149     O5153   2.401       .  S
O5150      H5187   0.990       .  S
O5151      H5182   0.990       .  S
O5151      H5196   0.990       .  S
O5153      H5179   0.961       .  S
O5154     Zr5164   2.402       .  S
O5155     Zr5164   2.396       .  S
O5155      H5180   0.963       .  S
C5157      C5368   1.453       .  S
O5159      H5195   0.990   1_455  S
O5160      C5162   1.283       .  A
O5161      C5162   1.291       .  A
O5163     Zr5164   2.441       .  S
O5163      H5192   0.990       .  S
Zr5164     O5167   2.432   1_655  S
Zr5164     O5168   2.441       .  S
Zr5164     O5169   2.360       .  S
O5165      C5170   1.301       .  A
O5166      H5183   0.989       .  S
O5166      H5198   0.989       .  S
O5167      H5184   0.990       .  S
O5168      H5188   0.990       .  S
O5168      H5197   0.990       .  S
O5169      C5170   1.269       .  A
O5171      H5194   0.991       .  S
O5172      H5186   0.990       .  S
O5172      H5193   0.990       .  S
O5173      C5177   1.272       .  A
O5174      C5177   1.290       .  A
O5175      H5185   0.990       .  S
O5176      H5189   0.990       .  S
C5200      C5237   1.483       .  S
C5200      C5201   1.423       .  A
C5200      C5205   1.397       .  A
C5201      C5202   1.421       .  A
C5201      H5206   1.084       .  S
C5203      C5204   1.402   1_455  A
C5203      H5207   1.084   1_455  S
C5204      C5311   1.461       .  S
C5205      H5208   1.085       .  S
Zr5209     O5210   2.439       .  S
Zr5209     O5211   2.493       .  S
Zr5209     O5212   2.564       .  S
Zr5209     O5215   2.472       .  S
Zr5209     O5217   2.387       .  S
Zr5209     O5218   2.404       .  S
Zr5209     O5219   2.402       .  S
Zr5209     O5220   2.419       .  S
O5210      H5266   0.990       .  S
O5210      H5274   0.990       .  S
O5211      C5231   1.296       .  A
O5212      C5233   1.311       .  A
O5213     Zr5223   2.472       .  S
O5213      C5232   1.293       .  A
O5214     Zr5222   2.386       .  S
O5214      C5233   1.275       .  A
O5215      C5232   1.295       .  A
O5216     Zr5224   2.360       .  S
O5216      C5231   1.271       .  A
O5217     Zr5222   2.408       .  S
O5217     Zr5224   2.398       .  S
O5218     Zr5223   2.374       .  S
O5218     Zr5224   2.377       .  S
O5218      H5253   0.964       .  S
O5219     Zr5222   2.403       .  S
O5219     Zr5239   2.352       .  S
O5219      H5256   0.962       .  S
O5220     Zr5223   2.407       .  S
O5220     Zr5239   2.382       .  S
Zr5221     O5246   2.432       .  S
Zr5221     O5240   2.475       .  S
Zr5221     O5248   2.423       .  S
Zr5221     O5236   2.522       .  S
Zr5221     O5227   2.414       .  S
Zr5221     O5228   2.398       .  S
Zr5221     O5229   2.378       .  S
Zr5221     O5230   2.404       .  S
Zr5222     O5241   2.435       .  S
Zr5222     O5234   2.435       .  S
Zr5222     O5235   2.408       .  S
Zr5222     O5228   2.388       .  S
Zr5222     O5229   2.396       .  S
Zr5223     O5225   2.435       .  S
Zr5223     O5247   2.438       .  S
Zr5223     O5249   2.478       .  S
Zr5223     O5227   2.399       .  S
Zr5223     O5230   2.372       .  S
Zr5224     O5250   2.435       .  S
Zr5224     O5251   2.438       .  S
Zr5224     O5226   2.439       .  S
Zr5224     O5227   2.384       .  S
Zr5224     O5228   2.350       .  S
O5225      H5262   0.990       .  S
O5226      H5257   0.990       .  S
O5226      H5271   0.990       .  S
O5228      H5254   0.961       .  S
O5229     Zr5239   2.400       .  S
O5230     Zr5239   2.377       .  S
O5230      H5255   0.965       .  S
C5231      C5354   1.470       .  S
C5232      C5345   1.510       .  S
C5233      C5359   1.493       .  S
O5234      H5270   0.990       .  S
O5235      C5237   1.279       .  A
O5236      C5237   1.299       .  A
O5238     Zr5239   2.442       .  S
O5238      H5267   0.990       .  S
Zr5239     O5242   2.437       .  S
Zr5239     O5243   2.441       .  S
Zr5239     O5244   2.360       .  S
O5240      C5245   1.291       .  A
O5241      H5258   0.990       .  S
O5241      H5273   0.990       .  S
O5242      H5259   0.990       .  S
O5243      H5263   0.990       .  S
O5243      H5272   0.989       .  S
O5244      C5245   1.271       .  A
O5246      H5265   0.991       .  S
O5246      H5269   0.989       .  S
O5247      H5261   0.990       .  S
O5247      H5268   0.990       .  S
O5248      C5252   1.283       .  A
O5249      C5252   1.295       .  A
O5250      H5260   0.990       .  S
O5251      H5264   0.990       .  S
Zr5275     O5276   2.440       .  S
Zr5275     O5277   2.505       .  S
Zr5275     O5278   2.532       .  S
Zr5275     O5281   2.494       .  S
Zr5275     O5283   2.401       .  S
Zr5275     O5284   2.402       .  S
Zr5275     O5285   2.446       .  S
Zr5275     O5286   2.415       .  S
O5276      H5332   0.990       .  S
O5276      H5340   0.990       .  S
O5277      C5297   1.299       .  A
O5278      C5299   1.294       .  A
O5279     Zr5289   2.439       .  S
O5279      C5298   1.285       .  A
O5280     Zr5288   2.386       .  S
O5280      C5299   1.264       .  A
O5281      C5298   1.298       .  A
O5282     Zr5290   2.398       .  S
O5282      C5297   1.276       .  A
O5283     Zr5288   2.413       .  S
O5283     Zr5290   2.379       .  S
O5284     Zr5289   2.387       .  S
O5284     Zr5290   2.384       .  S
O5284      H5319   0.964       .  S
O5285     Zr5288   2.410       .  S
O5285     Zr5305   2.373       .  S
O5285      H5322   0.964       .  S
O5286     Zr5289   2.395       .  S
O5286     Zr5305   2.386       .  S
Zr5287     O5312   2.447       .  S
Zr5287     O5306   2.448       .  S
Zr5287     O5314   2.400       .  S
Zr5287     O5302   2.436       .  S
Zr5287     O5293   2.400       .  S
Zr5287     O5294   2.414       .  S
Zr5287     O5295   2.372       .  S
Zr5287     O5296   2.392       .  S
Zr5288     O5307   2.438       .  S
Zr5288     O5300   2.430       .  S
Zr5288     O5301   2.411       .  S
Zr5288     O5294   2.389       .  S
Zr5288     O5295   2.385       .  S
Zr5289     O5291   2.436       .  S
Zr5289     O5313   2.438       .  S
Zr5289     O5315   2.451       .  S
Zr5289     O5293   2.381       .  S
Zr5289     O5296   2.390       .  S
Zr5290     O5316   2.436       .  S
Zr5290     O5317   2.438       .  S
Zr5290     O5292   2.439       .  S
Zr5290     O5293   2.379       .  S
Zr5290     O5294   2.388       .  S
O5291      H5328   0.990       .  S
O5292      H5323   0.990       .  S
O5292      H5337   0.990       .  S
O5294      H5320   0.964       .  S
O5295     Zr5305   2.390       .  S
O5296     Zr5305   2.384       .  S
O5296      H5321   0.966       .  S
C5297      C5343   1.496       .  S
O5300      H5336   0.991       .  S
O5301      C5303   1.278       .  A
O5302      C5303   1.281       .  A
C5303      C5372   1.452       .  S
O5304      H5333   0.990       .  S
Zr5305     O5308   2.438       .  S
Zr5305     O5309   2.443   1_655  S
Zr5305     O5310   2.388       .  S
O5306      C5311   1.283       .  A
O5307      H5324   0.990       .  S
O5307      H5339   0.988       .  S
O5308      H5325   0.990   1_655  S
O5309      H5338   0.989   1_455  S
O5310      C5311   1.275       .  A
O5312      H5331   0.991       .  S
O5312      H5335   0.990       .  S
O5313      H5327   0.990       .  S
O5313      H5334   0.990       .  S
O5314      C5318   1.277       .  A
O5315      C5318   1.290       .  A
O5316      H5326   0.990       .  S
O5317      H5330   0.990       .  S
C5341      C5342   1.404       .  A
C5341      C5346   1.413       .  A
C5342      C5343   1.399       .  A
C5342      H5347   1.084       .  S
C5343      C5344   1.425       .  A
C5344      C5345   1.416       .  A
C5344      H5348   1.083       .  S
C5345      C5346   1.409       .  A
C5346      H5349   1.084       .  S
C5350      C5351   1.402       .  A
C5350      C5355   1.410       .  A
C5351      C5352   1.418       .  A
C5352      C5353   1.398       .  A
C5353      C5354   1.384       .  A
C5353      H5357   1.084       .  S
C5354      C5355   1.413       .  A
C5355      H5358   1.084       .  S
C5359      C5360   1.431       .  A
C5359      C5364   1.392       .  A
C5360      C5361   1.428       .  A
C5360      H5365   1.083       .  S
C5361      C5362   1.400       .  A
C5364      H5367   1.085       .  S
C5368      C5369   1.397       .  A
C5368      C5373   1.401       .  A
C5369      C5370   1.390       .  A
C5369      H5374   1.085       .  S
C5370      C5371   1.399       .  A
C5371      C5372   1.398       .  A
C5371      H5375   1.085       .  S
C5372      C5373   1.391       .  A
C5373      H5376   1.084       .  S
