geometry optimzed in LAMMPS
_audit_creation_date              2020-12-01 
_audit_creation_method            'lammps2cif' 
_symmetry_space_group_name_H-M    'P1' 
_symmetry_Int_Tables_number       1 
_symmetry_cell_setting            triclinic 
loop_ 
_symmetry_equiv_pos_as_xyz 
  x,y,z 
_cell_length_a                    49.76841294 
_cell_length_b                    49.920513911333806 
_cell_length_c                    49.809956949713275 
_cell_angle_alpha                 90.03366799635913 
_cell_angle_beta                  90.23974797018688 
_cell_angle_gamma                 89.9182597991026 
loop_ 
_atom_site_label 
_atom_site_type_symbol 
_atom_site_fract_x 
_atom_site_fract_y 
_atom_site_fract_z 
_atom_site_charge 
O1          O  0.73811794  0.35567561  0.83346975    -0.57100
C2          C  0.81617083  0.41217464  0.87235965     0.75600
O3          O  0.78871483  0.39004531  0.79555843    -0.58200
C4          C  0.74226179  0.34065104  0.85343198     0.75500
C5          C  0.72619477  0.42245102  0.84200453     0.77900
Cd6        Cd  0.77251185  0.38818606  0.84260633     1.37500
O7          O  0.80282132  0.39285692  0.88201763    -0.57000
O8          O  0.73705883  0.41486057  0.86375483    -0.55900
C9          C  0.80090954  0.36772460  0.79679902     0.77900
O10         O  0.73859544  0.41683939  0.82056142    -0.58200
O11         O  0.80801423  0.42125734  0.85003408    -0.56700
O12         O  0.76101405  0.34732842  0.86943955    -0.56700
O13         O  0.80029989  0.35599402  0.81922181    -0.55800
O14         O  0.80476393  0.63997476  0.90873258    -0.57100
C15         C  0.74656321  0.68693883  0.87198514     0.75600
O16         O  0.77738073  0.62253896  0.82409999    -0.58200
C17         C  0.81681507  0.61820648  0.90357629     0.75500
C18         C  0.72536201  0.60207270  0.87877121     0.77900
Cd19       Cd  0.77200227  0.63504573  0.87173109     1.37500
O20         O  0.76148511  0.67868647  0.85333913    -0.57000
O21         O  0.73819122  0.61176904  0.89843451    -0.55900
C22         C  0.79841015  0.63663345  0.82119725     0.77900
O23         O  0.73572872  0.60537076  0.85582220    -0.58200
O24         O  0.74548088  0.67230291  0.89266733    -0.56700
O25         O  0.80728204  0.60382621  0.88497922    -0.56700
O26         O  0.80678484  0.64924003  0.84161265    -0.55800
O27         O  0.73977367  0.61745828  0.11100686    -0.57100
C28         C  0.80234565  0.55878159  0.09908761     0.75600
O29         O  0.78923718  0.58150312  0.18048094    -0.58200
C30         C  0.73765065  0.63300934  0.13102612     0.75500
C31         C  0.72035427  0.55020646  0.14827096     0.77900
Cd32       Cd  0.76610644  0.58311274  0.13651476     1.37500
O33         O  0.78921948  0.57971454  0.09302589    -0.57000
O34         O  0.72766655  0.55515804  0.12451295    -0.55900
C35         C  0.80711500  0.59836220  0.17384411     0.77900
O36         O  0.73587252  0.55825851  0.16680688    -0.58200
O37         O  0.79659785  0.54801521  0.12135184    -0.56700
O38         O  0.74955630  0.62584190  0.15223490    -0.56700
O39         O  0.80585634  0.60746926  0.15018239    -0.55800
O40         O  0.79615692  0.37289909  0.06100966    -0.57100
C41         C  0.73930880  0.33708168  0.10882426     0.75600
O42         O  0.78583047  0.40039851  0.14250249    -0.58200
C43         C  0.80794269  0.39525623  0.05872441     0.75500
C44         C  0.71887952  0.41928658  0.09471955     0.77900
Cd45       Cd  0.76661072  0.38639982  0.09813560     1.37500
O46         O  0.74247967  0.34476302  0.08476075    -0.57000
O47         O  0.72495554  0.40249768  0.07668462    -0.55900
C48         C  0.80296735  0.38147697  0.14246050     0.77900
O49         O  0.73631245  0.42289642  0.11305411    -0.58200
O50         O  0.74916539  0.35171720  0.12701301    -0.56700
O51         O  0.79833522  0.41450877  0.07224955    -0.56700
O52         O  0.80345091  0.36675593  0.12183356    -0.55800
O53         O  0.85336811  0.76511156  0.36126625    -0.57100
C54         C  0.90021404  0.70271229  0.38637288     0.75600
O55         O  0.91663292  0.70731638  0.32361219    -0.58200
C56         C  0.84640475  0.76806550  0.33689887     0.75500
C57         C  0.93084235  0.79375287  0.35778914     0.77900
Cd58       Cd  0.89872087  0.74645611  0.34891110     1.37500
O59         O  0.87845671  0.71489422  0.38098437    -0.57000
O60         O  0.91496282  0.78464861  0.37526113    -0.55900
C61         C  0.90377634  0.71282145  0.30232832     0.77900
O62         O  0.93405470  0.77943267  0.33708902    -0.58200
O63         O  0.92145766  0.71277817  0.37683504    -0.56700
O64         O  0.86335151  0.76067105  0.31964286    -0.56700
O65         O  0.89206944  0.73525690  0.30186862    -0.55800
O66         O  0.89157939  0.76692585  0.59877660    -0.57100
C67         C  0.85688378  0.71083761  0.64865900     0.75600
O68         O  0.80387746  0.76512389  0.59974633    -0.58200
C69         C  0.88440472  0.78228759  0.57976187     0.75500
C70         C  0.84585459  0.69890486  0.56563970     0.77900
Cd71       Cd  0.84902875  0.74299306  0.60161090     1.37500
O72         O  0.87246445  0.73035619  0.64399697    -0.57000
O73         O  0.86822679  0.70896263  0.57240938    -0.55900
C74         C  0.80804902  0.77857364  0.62098304     0.77900
O75         O  0.82486090  0.71117148  0.57322185    -0.58200
O76         O  0.83871689  0.70630025  0.63150520    -0.56700
O77         O  0.86169288  0.77764738  0.56920553    -0.56700
O78         O  0.83037534  0.77477954  0.63250781    -0.55800
O79         O  0.06801024  0.77307130  0.66299145    -0.57100
C80         C  0.11036272  0.70310153  0.69339795     0.75600
O81         O  0.09761850  0.70816079  0.60805154    -0.58200
C82         C  0.06541574  0.78288345  0.63961846     0.75500
C83         C  0.14808510  0.76323467  0.64708007     0.77900
Cd84       Cd  0.09764691  0.73611945  0.64810312     1.37500
O85         O  0.09205688  0.72078762  0.69534333    -0.57000
O86         O  0.13046745  0.76650116  0.66495686    -0.55900
C87         C  0.07755947  0.69410400  0.61491178     0.77900
O88         O  0.14216560  0.74709560  0.62829035    -0.58200
O89         O  0.12160027  0.70072019  0.67081968    -0.56700
O90         O  0.07495838  0.76937259  0.62038219    -0.56700
O91         O  0.06549854  0.70104367  0.63621893    -0.55800
O92         O  0.07148336  0.78157841  0.38390873    -0.57100
C93         C  0.11463055  0.72042536  0.33369452     0.75600
O94         O  0.15582654  0.76727128  0.38764748    -0.58200
C95         C  0.07852034  0.79185833  0.40624291     0.75500
C96         C  0.10243798  0.70453706  0.41647816     0.77900
Cd97       Cd  0.10983433  0.75017186  0.38276062     1.37500
O98         O  0.09176177  0.73013636  0.33978564    -0.57000
O99         O  0.08385199  0.71463883  0.40232750    -0.55900
C100        C  0.15327136  0.78422525  0.36871561     0.77900
O101        O  0.12461144  0.71715439  0.41708068    -0.58200
O102        O  0.13370754  0.72493843  0.34988192    -0.56700
O103        O  0.09856571  0.78128141  0.41790070    -0.56700
O104        O  0.13025409  0.78631828  0.35794499    -0.55800
O105        O  0.66149070  0.11498609  0.73090845    -0.57100
C106        C  0.60925878  0.10372276  0.80203805     0.75600
O107        O  0.62416963  0.18598862  0.77287355    -0.58200
C108        C  0.67712669  0.13492484  0.72935031     0.75500
C109        C  0.59378896  0.14082422  0.71365215     0.77900
Cd110      Cd  0.62806548  0.13859240  0.75990556     1.37500
O111        O  0.63079745  0.09919945  0.78934901    -0.57000
O112        O  0.60286815  0.11891360  0.72264524    -0.55900
C113        C  0.64178575  0.18422703  0.79133599     0.77900
O114        O  0.59743758  0.16139843  0.72813048    -0.58200
O115        O  0.59549445  0.12350453  0.79388689    -0.56700
O116        O  0.67120700  0.15492708  0.74360695    -0.56700
O117        O  0.65135670  0.16119975  0.79608677    -0.55800
O118        O  0.60937816  0.90228271  0.77607906    -0.57100
C119        C  0.66501168  0.86315477  0.72499488     0.75600
O120        O  0.61228612  0.81557521  0.76720332    -0.58200
C121        C  0.58836549  0.89455536  0.78817332     0.75500
C122        C  0.58397856  0.85630927  0.69839678     0.77900
Cd123      Cd  0.61270716  0.86142910  0.74816528     1.37500
O124        O  0.65254123  0.88503365  0.72891934    -0.57000
O125        O  0.59588129  0.87757526  0.70543977    -0.55900
C126        C  0.62908742  0.82155214  0.78557845     0.77900
O127        O  0.58217019  0.83802792  0.71600596    -0.58200
O128        O  0.65330882  0.84184844  0.73188538    -0.56700
O129        O  0.57681726  0.87399700  0.77876169    -0.56700
O130        O  0.63689470  0.84560779  0.78661801    -0.55800
O131        O  0.32014510  0.86944806  0.71510069    -0.57100
C132        C  0.36976720  0.90316381  0.77636387     0.75600
O133        O  0.37935345  0.82154812  0.75867529    -0.58200
C134        C  0.32004236  0.84640675  0.70416942     0.75500
C135        C  0.39498951  0.87315178  0.68774544     0.77900
Cd136      Cd  0.36465421  0.86351891  0.73514423     1.37500
O137        O  0.34860436  0.90130291  0.76221693    -0.57000
O138        O  0.37369734  0.88596011  0.69301620    -0.55900
C139        C  0.35677938  0.81918208  0.77039230     0.77900
O140        O  0.40433261  0.85795228  0.70605103    -0.58200
O141        O  0.38986980  0.88948521  0.76888367    -0.56700
O142        O  0.34069069  0.83195492  0.70772583    -0.56700
O143        O  0.33968563  0.83737965  0.76593209    -0.55800
O144        O  0.41140412  0.11925167  0.70365255    -0.57100
C145        C  0.37015291  0.16566611  0.75813441     0.75600
O146        O  0.32546500  0.10261014  0.71440879    -0.58200
C147        C  0.40715078  0.09884450  0.68908673     0.75500
C148        C  0.38407335  0.08322958  0.77705753     0.77900
Cd149      Cd  0.37128620  0.11510838  0.73100436     1.37500
O150        O  0.38397104  0.16254774  0.73701306    -0.57000
O151        O  0.40073258  0.09883989  0.76605268    -0.55900
C152        C  0.32232515  0.12471430  0.70212881     0.77900
O153        O  0.36150118  0.08051631  0.76535581    -0.58200
O154        O  0.35825024  0.14521006  0.76715881    -0.56700
O155        O  0.38675190  0.08501032  0.69500146    -0.56700
O156        O  0.34153007  0.14114856  0.70327266    -0.55800
O157        O  0.66405750  0.84376901  0.24196043    -0.57100
C158        C  0.60155783  0.86648667  0.18911654     0.75600
O159        O  0.60862606  0.78229700  0.20543466    -0.58200
C160        C  0.67037264  0.82249390  0.25440299     0.75500
C161        C  0.58868978  0.82936253  0.27477005     0.77900
Cd162      Cd  0.61972664  0.82639717  0.22650128     1.37500
O163        O  0.62455223  0.86747717  0.20007859    -0.57000
O164        O  0.60001855  0.84977099  0.26490716    -0.55900
C165        C  0.62766612  0.78368881  0.18857448     0.77900
O166        O  0.58902289  0.80820173  0.26066232    -0.58200
O167        O  0.58626113  0.84779658  0.19700922    -0.56700
O168        O  0.65336889  0.80374166  0.25346879    -0.56700
O169        O  0.64170801  0.80473008  0.18920099    -0.55800
O170        O  0.62861983  0.09867456  0.20599578    -0.57100
C171        C  0.67636415  0.14003928  0.26290623     0.75600
O172        O  0.62297069  0.18613726  0.20857341    -0.58200
C173        C  0.60919021  0.10501352  0.19066718     0.75500
C174        C  0.59340237  0.14053228  0.27611888     0.77900
Cd175      Cd  0.62846574  0.14155052  0.23080582     1.37500
O176        O  0.65776464  0.15688666  0.26645320    -0.57000
O177        O  0.60351270  0.11938126  0.26635003    -0.55900
C178        C  0.64464642  0.18395292  0.19533587     0.77900
O179        O  0.59660246  0.16194028  0.26277255    -0.58200
O180        O  0.67286794  0.12288099  0.24439266    -0.56700
O181        O  0.59738147  0.12687858  0.19584199    -0.56700
O182        O  0.65806288  0.16281663  0.19913028    -0.55800
O183        O  0.35301957  0.89232411  0.20477660    -0.57100
C184        C  0.30708249  0.85483502  0.26618822     0.75600
O185        O  0.36631990  0.80568624  0.22476730    -0.58200
C186        C  0.37028857  0.88375110  0.18816168     0.75500
C187        C  0.39271923  0.86172184  0.27970681     0.77900
Cd188      Cd  0.35607849  0.85312764  0.23564884     1.37500
O189        O  0.30964853  0.86966766  0.24567297    -0.57000
O190        O  0.37583075  0.87930761  0.27248351    -0.55900
C191        C  0.34538495  0.80291160  0.21043527     0.77900
O192        O  0.39499627  0.84145402  0.26452647    -0.58200
O193        O  0.32689727  0.84013463  0.27218472    -0.56700
O194        O  0.38238881  0.86252694  0.19491240    -0.56700
O195        O  0.32964316  0.82272031  0.20903844    -0.55800
O196        O  0.34636600  0.09999730  0.26685989    -0.57100
C197        C  0.39969143  0.08051170  0.19973705     0.75600
O198        O  0.39732811  0.15735348  0.22469173    -0.58200
C199        C  0.34761697  0.11828721  0.28463825     0.75500
C200        C  0.43055265  0.10690940  0.28640940     0.77900
Cd201      Cd  0.38993562  0.11333874  0.24636754     1.37500
O202        O  0.38104625  0.07462037  0.21605039    -0.57000
O203        O  0.41572142  0.08752140  0.27921780    -0.55900
C204        C  0.37307157  0.15904718  0.21678402     0.77900
O205        O  0.42864198  0.12835081  0.27282572    -0.58200
O206        O  0.41500023  0.09950145  0.20683355    -0.56700
O207        O  0.36837971  0.13281113  0.28483764    -0.56700
O208        O  0.35762485  0.14005459  0.22304479    -0.55800
O209        O  0.22525225  0.62507436  0.92007470    -0.57100
C210        C  0.27928945  0.66127813  0.86564711     0.75600
O211        O  0.28328169  0.57543294  0.87181097    -0.58200
C212        C  0.21489327  0.60201926  0.92279515     0.75500
C213        C  0.21306832  0.61427402  0.83841261     0.77900
Cd214      Cd  0.25193541  0.61308269  0.88075512     1.37500
O215        O  0.26852942  0.65952087  0.88864224    -0.57000
O216        O  0.21182242  0.62907935  0.85893373    -0.55900
C217        C  0.30002535  0.58307706  0.88954099     0.77900
O218        O  0.23229577  0.59752198  0.83744913    -0.58200
O219        O  0.27646614  0.64120366  0.85041363    -0.56700
O220        O  0.22400528  0.58354137  0.90793130    -0.56700
O221        O  0.29296174  0.60251832  0.90424572    -0.55800
O222        O  0.23540820  0.38074350  0.87874984    -0.57100
C223        C  0.29158722  0.33160238  0.83122658     0.75600
O224        O  0.24226226  0.39062873  0.79318734    -0.58200
C225        C  0.22360620  0.40262116  0.87295260     0.75500
C226        C  0.31033362  0.41090836  0.84301988     0.77900
Cd227      Cd  0.26273485  0.38072460  0.83740413     1.37500
O228        O  0.27639307  0.33475256  0.85147234    -0.57000
O229        O  0.30132208  0.39627506  0.86168318    -0.55900
C230        C  0.22497293  0.37211040  0.79584354     0.77900
O231        O  0.29544364  0.41429317  0.82251389    -0.58200
O232        O  0.29252551  0.35065670  0.81454022    -0.56700
O233        O  0.23220901  0.41516576  0.85268639    -0.56700
O234        O  0.22643341  0.35778828  0.81672197    -0.55800
O235        O  0.27591419  0.55781920  0.19152771    -0.57100
C236        C  0.20203822  0.60271166  0.19994614     0.75600
O237        O  0.26312134  0.61654980  0.13433132    -0.58200
C238        C  0.28853136  0.54830549  0.17158475     0.75500
C239        C  0.20325681  0.55921875  0.12720372     0.77900
Cd240      Cd  0.24182604  0.58210175  0.16350284     1.37500
O241        O  0.21565277  0.58211637  0.20658352    -0.57000
O242        O  0.20737550  0.54951282  0.15037676    -0.55900
C243        C  0.26863415  0.63161505  0.15408237     0.77900
O244        O  0.21860739  0.57817031  0.12027740    -0.58200
O245        O  0.20739526  0.61283254  0.17738383    -0.56700
O246        O  0.27815872  0.55265484  0.14881592    -0.56700
O247        O  0.26231790  0.62340666  0.17716727    -0.55800
O248        O  0.27355169  0.31437241  0.10497858    -0.57100
C249        C  0.21185779  0.37037230  0.08547579     0.75600
O250        O  0.24063599  0.36982751  0.16679445    -0.58200
C251        C  0.28940606  0.31238268  0.12493952     0.75500
C252        C  0.29895735  0.39521637  0.11157439     0.77900
Cd253      Cd  0.25573505  0.35830224  0.12064149     1.37500
O254        O  0.22559710  0.34922378  0.08218951    -0.57000
O255        O  0.29205674  0.37821207  0.09396946    -0.55900
C256        C  0.22695918  0.34859511  0.16957728     0.77900
O257        O  0.28407645  0.39663981  0.13208532    -0.58200
O258        O  0.21966122  0.38619388  0.10377425    -0.56700
O259        O  0.28881305  0.33111527  0.14194446    -0.56700
O260        O  0.22604979  0.33312449  0.14947379    -0.55800
O261        O  0.89860805  0.20710880  0.58631666    -0.57100
C262        C  0.85151651  0.26544721  0.63149311     0.75600
O263        O  0.83470975  0.26086576  0.54813187    -0.58200
C264        C  0.89390912  0.19387276  0.56502349     0.75500
C265        C  0.81555514  0.19696895  0.60171879     0.77900
Cd266      Cd  0.85619384  0.23354212  0.58371681     1.37500
O267        O  0.87441911  0.25624545  0.62489936    -0.57000
O268        O  0.83903325  0.19747602  0.61149496    -0.55900
C269        C  0.85414952  0.27718051  0.54619828     0.77900
O270        O  0.81100433  0.21247886  0.58197264    -0.58200
O271        O  0.83234255  0.26056558  0.61560713    -0.56700
O272        O  0.87332543  0.20089517  0.55168541    -0.56700
O273        O  0.87512036  0.27173891  0.55963133    -0.55800
O274        O  0.07403529  0.20409668  0.63846604    -0.57100
C275        C  0.12152948  0.26719379  0.66692442     0.75600
O276        O  0.13538763  0.20002161  0.64172757    -0.58200
C277        C  0.06918733  0.19383160  0.61566325     0.75500
C278        C  0.09594418  0.27934247  0.58816985     0.77900
Cd279      Cd  0.10880778  0.23460888  0.62181968     1.37500
O280        O  0.09745484  0.25969142  0.66322892    -0.57000
O281        O  0.08190925  0.27195489  0.60786131    -0.55900
C282        C  0.15414194  0.19950710  0.62474144     0.77900
O283        O  0.11578635  0.26438575  0.58226684    -0.58200
O284        O  0.13901863  0.25865939  0.65072741    -0.56700
O285        O  0.08120079  0.20394216  0.59574505    -0.56700
O286        O  0.15187874  0.21543776  0.60489960    -0.55800
O287        O  0.92487452  0.21519217  0.32138608    -0.57100
C288        C  0.88200881  0.27655169  0.29018995     0.75600
O289        O  0.84492750  0.23484684  0.35253915    -0.58200
C290        C  0.93078665  0.20544113  0.34411576     0.75500
C291        C  0.89848398  0.28961749  0.37655523     0.77900
Cd292      Cd  0.89118746  0.24675069  0.33871009     1.37500
O293        O  0.90582033  0.27166438  0.29787059    -0.57000
O294        O  0.91395323  0.28584573  0.35680014    -0.55900
C295        C  0.84434907  0.21348437  0.33873886     0.77900
O296        O  0.88067469  0.27192787  0.38031923    -0.58200
O297        O  0.86339330  0.26740716  0.30462008    -0.56700
O298        O  0.92019422  0.21648932  0.36437142    -0.56700
O299        O  0.86559197  0.20748879  0.32634006    -0.55800
O300        O  0.13989409  0.25881756  0.34734984    -0.57100
C301        C  0.11767222  0.20194271  0.40926254     0.75600
O302        O  0.20111211  0.22583992  0.40254252    -0.58200
C303        C  0.16191918  0.27083019  0.34291328     0.75500
C304        C  0.14386621  0.28929277  0.42369574     0.77900
Cd305      Cd  0.15489075  0.24230136  0.39234404     1.37500
O306        O  0.11611409  0.21281029  0.38627476    -0.57000
O307        O  0.12605105  0.27776107  0.40969340    -0.55900
C308        C  0.20046582  0.20801633  0.38428217     0.77900
O309        O  0.16662882  0.27782844  0.42524809    -0.58200
O310        O  0.13579835  0.21080423  0.42490513    -0.56700
O311        O  0.17953515  0.26907989  0.36114952    -0.56700
O312        O  0.17858786  0.20532575  0.37156792    -0.55800
C313        C  0.53971125  0.52285705  0.87784960     0.03000
C314        C  0.54030213  0.49596501  0.86900184     0.03000
C315        C  0.51627954  0.48210299  0.86472866    -0.17500
C316        C  0.49154715  0.49461618  0.86922279     0.03000
C317        C  0.49080752  0.52134316  0.87866431     0.03000
C318        C  0.51492037  0.53533358  0.88284718    -0.17500
H319        H  0.51438852  0.55595194  0.88965213     0.05100
H320        H  0.51682442  0.46160839  0.85752838     0.05100
C321        C  0.52864138  0.50062541  0.14575701     0.03000
C322        C  0.52927847  0.47998013  0.12622419     0.03000
C323        C  0.50520441  0.46826400  0.11756425    -0.17500
C324        C  0.48053558  0.47656367  0.12816196     0.03000
C325        C  0.47975522  0.49715177  0.14767970     0.03000
C326        C  0.50387043  0.50917468  0.15621134    -0.17500
H327        H  0.50338503  0.52491388  0.17119620     0.05100
H328        H  0.50569100  0.45238508  0.10271516     0.05100
C329        C  0.48320840  0.85128761  0.50886543     0.03000
C330        C  0.51095727  0.84526158  0.50981692     0.03000
C331        C  0.52507289  0.84140795  0.48580086    -0.17500
C332        C  0.51189163  0.84370568  0.46090946     0.03000
C333        C  0.48406977  0.84945453  0.45999072     0.03000
C334        C  0.46993536  0.85301234  0.48401667    -0.17500
H335        H  0.44869881  0.85783804  0.48336600     0.05100
H336        H  0.54642732  0.83714572  0.48645316     0.05100
C337        C  0.53543516  0.11841035  0.52243067     0.03000
C338        C  0.51042567  0.10564830  0.51817498     0.03000
C339        C  0.50157203  0.10034527  0.49176611    -0.17500
C340        C  0.51764252  0.10728581  0.46934301     0.03000
C341        C  0.54153569  0.12054552  0.47463429     0.03000
C342        C  0.55086449  0.12598870  0.50041496    -0.17500
H343        H  0.56987626  0.13618441  0.50329140     0.05100
H344        H  0.48190219  0.09159594  0.48942310     0.05100
C345        C  0.87445027  0.51830205  0.46385586     0.03000
C346        C  0.85972277  0.51590305  0.48796449     0.03000
C347        C  0.85339147  0.49051927  0.49813290    -0.17500
C348        C  0.86169203  0.46735684  0.48467154     0.03000
C349        C  0.87721934  0.46966249  0.46105692     0.03000
C350        C  0.88309118  0.49507249  0.45057482    -0.17500
H351        H  0.89445094  0.49676118  0.43213615     0.05100
H352        H  0.84207865  0.48880975  0.51660313     0.05100
C353        C  0.09050950  0.51993581  0.49737604     0.03000
C354        C  0.08225867  0.51688563  0.52438825     0.03000
C355        C  0.07998875  0.49116300  0.53544048    -0.17500
C356        C  0.08665467  0.46840077  0.52029646     0.03000
C357        C  0.09572313  0.47153010  0.49356121     0.03000
C358        C  0.09706612  0.49716002  0.48218843    -0.17500
H359        H  0.10374550  0.49942763  0.46162929     0.05100
H360        H  0.07336603  0.48888369  0.55601443     0.05100
C361        C  0.02191547  0.97809429  0.41694244     0.03000
C362        C  0.00095991  0.97827165  0.39761192     0.03000
C363        C  0.99182868  0.00270021  0.38720845    -0.17500
C364        C  0.00359981  0.02689625  0.39524919     0.03000
C365        C  0.02498532  0.02669281  0.41404909     0.03000
C366        C  0.03376126  0.00226584  0.42493026    -0.17500
H367        H  0.05026170  0.00201910  0.43920856     0.05100
H368        H  0.97587488  0.00285400  0.37231710     0.05100
C369        C  0.99540438  0.96311059  0.58182107     0.03000
C370        C  0.97090166  0.96218370  0.56738805     0.03000
C371        C  0.95913249  0.98600293  0.55803551    -0.17500
C372        C  0.97089517  0.01087958  0.56381296     0.03000
C373        C  0.99489655  0.01182188  0.57915109     0.03000
C374        C  0.00717231  0.98794821  0.58762131    -0.17500
H375        H  0.02544647  0.98874252  0.59951388     0.05100
H376        H  0.94030821  0.98522799  0.54704109     0.05100
C377        C  0.39981906  0.00827223  0.96231393     0.03000
C378        C  0.39209068  0.98097612  0.96122328     0.03000
C379        C  0.38834095  0.96671012  0.98518854    -0.17500
C380        C  0.39188646  0.97920959  0.01020725     0.03000
C381        C  0.39908217  0.00663140  0.01130007     0.03000
C382        C  0.40292902  0.02091422  0.98732981    -0.17500
H383        H  0.40826278  0.04194404  0.98814613     0.05100
H384        H  0.38241273  0.94583780  0.98437760     0.05100
C385        C  0.56606232  0.97526864  0.97119806     0.03000
C386        C  0.57102109  0.00311797  0.97323368     0.03000
C387        C  0.57345268  0.01490751  0.99866319    -0.17500
C388        C  0.57242374  0.99940678  0.02205674     0.03000
C389        C  0.56758773  0.97151549  0.02024310     0.03000
C390        C  0.56374781  0.95988050  0.99472282    -0.17500
H391        H  0.56023398  0.93851976  0.99309066     0.05100
H392        H  0.57715046  0.03625467  0.00024204     0.05100
C393        C  0.99288316  0.42038304  0.98102397     0.03000
C394        C  0.99621359  0.42880343  0.95411543     0.03000
C395        C  0.02211299  0.43090442  0.94338455    -0.17500
C396        C  0.04468716  0.42404103  0.95880967     0.03000
C397        C  0.04149641  0.41583208  0.98581891     0.03000
C398        C  0.01558840  0.41455239  0.99676323    -0.17500
H399        H  0.01301436  0.40823247  0.01740699     0.05100
H400        H  0.02464985  0.43705583  0.92267955     0.05100
C401        C  0.98388630  0.54840304  0.02172122     0.03000
C402        C  0.98632232  0.56302632  0.99769011     0.03000
C403        C  0.01172784  0.57007939  0.98823344    -0.17500
C404        C  0.03490422  0.56302311  0.00260607     0.03000
C405        C  0.03255565  0.54758365  0.02638843     0.03000
C406        C  0.00700120  0.54054452  0.03572958    -0.17500
H407        H  0.00505332  0.52949441  0.05435569     0.05100
H408        H  0.01342723  0.58166044  0.96990478     0.05100
C409        C  0.10053673  0.17888666  0.41691676    -0.11200
C410        C  0.07632496  0.17269344  0.40329752     0.04300
C411        C  0.06338611  0.14835795  0.40824992    -0.11700
C412        C  0.07398208  0.12994117  0.42669285     0.19100
C413        C  0.09705535  0.13671978  0.44155406    -0.08800
C414        C  0.11002126  0.16109283  0.43675124    -0.01700
H415        H  0.04549268  0.14328903  0.39685556     0.05700
C416        C  0.06251517  0.10270001  0.42757437     0.21100
H417        H  0.12836871  0.16546892  0.44766543     0.10800
C418        C  0.07710649  0.08170001  0.41589648    -0.15100
C419        C  0.06559598  0.05642638  0.41252749     0.03800
C420        C  0.03913483  0.05176962  0.42128348    -0.10400
C421        C  0.02501392  0.07242505  0.43423325    -0.00500
C422        C  0.03637808  0.09789777  0.43704540    -0.05600
H423        H  0.09706312  0.08539138  0.40811983     0.06800
H424        H  0.00464190  0.06905427  0.44100173     0.10200
Br425      Br  0.11197804  0.11282986  0.46788026    -0.05300
Br426      Br  0.05975220  0.19620187  0.37759817    -0.02300
Br427      Br  0.08582835  0.02987539  0.39335654     0.00600
Br428      Br  0.01521748  0.12588082  0.45271375    -0.03800
C429        C  0.13872557  0.31590274  0.43555151    -0.11200
C430        C  0.11466868  0.32179108  0.44916555     0.04300
C431        C  0.10871694  0.34827512  0.45633734    -0.11700
C432        C  0.12610380  0.36935568  0.44953998     0.19100
C433        C  0.15036960  0.36333277  0.43626029    -0.08800
C434        C  0.15660439  0.33677581  0.42971189    -0.01700
H435        H  0.09040804  0.35245636  0.46726671     0.05700
C436        C  0.11925032  0.39717330  0.45773268     0.21100
H437        H  0.17486710  0.33259748  0.41869298     0.10800
C438        C  0.13700760  0.41113579  0.47463245    -0.15100
C439        C  0.13059139  0.43660308  0.48426734     0.03800
C440        C  0.10547951  0.44805553  0.47820137    -0.10400
C441        C  0.08821257  0.43490403  0.46021478    -0.00500
C442        C  0.09499153  0.40968778  0.44980868    -0.05600
H443        H  0.15583534  0.40201761  0.48069865     0.06800
H444        H  0.06897875  0.44377992  0.45513483     0.10200
Br445      Br  0.17473660  0.39074952  0.42469632    -0.05300
Br446      Br  0.08971551  0.29427926  0.45903887    -0.02300
Br447      Br  0.15675775  0.45519236  0.50555335     0.00600
Br448      Br  0.07062469  0.39340051  0.42471660    -0.03800
C449        C  0.99359219  0.05220174  0.38339748    -0.11200
C450        C  0.96868236  0.06298762  0.39121536     0.04300
C451        C  0.96041537  0.08778365  0.38116760    -0.11700
C452        C  0.97677217  0.10220146  0.36349861     0.19100
C453        C  0.00154512  0.09138536  0.35542121    -0.08800
C454        C  0.00976262  0.06642023  0.36528806    -0.01700
H455        H  0.94152588  0.09627606  0.38780906     0.05700
C456        C  0.96854747  0.12951849  0.35590201     0.21100
H457        H  0.02906514  0.05835101  0.35935645     0.10800
C458        C  0.97405457  0.15050667  0.37375947    -0.15100
C459        C  0.96346784  0.17607333  0.36937108     0.03800
C460        C  0.94706456  0.18087637  0.34673426    -0.10400
C461        C  0.94305948  0.16020917  0.32795057    -0.00500
C462        C  0.95349693  0.13457207  0.33249499    -0.05600
H463        H  0.98597382  0.14674201  0.39162826     0.06800
H464        H  0.93038333  0.16352335  0.31052199     0.10200
Br465      Br  0.02501429  0.11060091  0.33188238    -0.05300
Br466      Br  0.94636398  0.04563162  0.41722892    -0.02300
Br467      Br  0.97214711  0.20357401  0.39486866     0.00600
Br468      Br  0.94531413  0.10673764  0.30719309    -0.03800
C469        C  0.90006257  0.31467561  0.39251411    -0.11200
C470        C  0.88627994  0.31860645  0.41703780     0.04300
C471        C  0.88521279  0.34425921  0.42849842    -0.11700
C472        C  0.89756398  0.36608515  0.41588546     0.19100
C473        C  0.91227906  0.36199497  0.39229544    -0.08800
C474        C  0.91363934  0.33650747  0.38097974    -0.01700
H475        H  0.87403982  0.34737316  0.44687112     0.05700
C476        C  0.89350436  0.39334988  0.42638913     0.21100
H477        H  0.92432418  0.33416081  0.36222269     0.10800
C478        C  0.91077420  0.40335227  0.44628087    -0.15100
C479        C  0.90712154  0.42921685  0.45649106     0.03800
C480        C  0.88597782  0.44531334  0.44665566    -0.10400
C481        C  0.86986710  0.43584759  0.42560831    -0.00500
C482        C  0.87306405  0.40983027  0.41588264    -0.05600
H483        H  0.92688911  0.39092481  0.45403674     0.06800
H484        H  0.85365774  0.44816116  0.41788111     0.10200
Br485      Br  0.92953514  0.39101864  0.37396723    -0.05300
Br486      Br  0.86846363  0.29024334  0.43592015    -0.02300
Br487      Br  0.93127858  0.44172637  0.48383428     0.00600
Br488      Br  0.84799961  0.39703458  0.38949624    -0.03800
C489        C  0.09047398  0.30516414  0.57434537    -0.11200
C490        C  0.06761069  0.32102799  0.58048065     0.04300
C491        C  0.06601123  0.34744768  0.57133305    -0.11700
C492        C  0.08634452  0.35839816  0.55549235     0.19100
C493        C  0.10803600  0.34215330  0.54759517    -0.08800
C494        C  0.11003672  0.31581890  0.55707793    -0.01700
H495        H  0.04891152  0.35968905  0.57688496     0.05700
C496        C  0.08478493  0.38695456  0.54783770     0.21100
H497        H  0.12748491  0.30402799  0.55168173     0.10800
C498        C  0.10157877  0.40555816  0.56071618    -0.15100
C499        C  0.10129436  0.43260471  0.55325906     0.03800
C500        C  0.08423740  0.44124774  0.53229525    -0.10400
C501        C  0.06635805  0.42283437  0.52057678    -0.00500
C502        C  0.06657736  0.39587043  0.52812880    -0.05600
H503        H  0.11520453  0.39891151  0.57637973     0.06800
H504        H  0.05276498  0.42932798  0.50483289     0.10200
Br505      Br  0.13543314  0.35525866  0.52408409    -0.05300
Br506      Br  0.03754779  0.30840614  0.60103605    -0.02300
Br507      Br  0.12524365  0.45656260  0.57163862     0.00600
Br508      Br  0.04259915  0.37166379  0.51016865    -0.03800
C509        C  0.00598137  0.03794444  0.58790976    -0.11200
C510        C  0.02981894  0.04825942  0.57689104     0.04300
C511        C  0.03721517  0.07476376  0.58222066    -0.11700
C512        C  0.02099934  0.09124127  0.59824957     0.19100
C513        C  0.99728441  0.08092749  0.60936808    -0.08800
C514        C  0.99025934  0.05429012  0.60463022    -0.01700
H515        H  0.05556972  0.08263953  0.57369272     0.05700
C516        C  0.02998135  0.11869274  0.60421233     0.21100
H517        H  0.97175826  0.04660802  0.61299878     0.10800
C518        C  0.02671674  0.13884150  0.58488739    -0.15100
C519        C  0.03779053  0.16428711  0.58895422     0.03800
C520        C  0.05238607  0.16971013  0.61270190    -0.10400
C521        C  0.05421420  0.14989515  0.63262870    -0.00500
C522        C  0.04339201  0.12444916  0.62840901    -0.05600
H523        H  0.01613665  0.13453846  0.56633172     0.06800
H524        H  0.06561585  0.15360919  0.65083115     0.10200
Br525      Br  0.97334458  0.10283499  0.63001399    -0.05300
Br526      Br  0.05197774  0.02746975  0.55331762    -0.02300
Br527      Br  0.03235274  0.19078680  0.56153463     0.00600
Br528      Br  0.04935654  0.09742570  0.65518361    -0.03800
C529        C  0.90967754  0.16977225  0.55709046    -0.11200
C530        C  0.93474322  0.16283139  0.56873340     0.04300
C531        C  0.94541731  0.13709409  0.56467364    -0.11700
C532        C  0.93171676  0.11815955  0.54891833     0.19100
C533        C  0.90815565  0.12585586  0.53539324    -0.08800
C534        C  0.89740817  0.15138814  0.53944657    -0.01700
H535        H  0.96394700  0.13148197  0.57467639     0.05700
C536        C  0.94028216  0.08975342  0.54940815     0.21100
H537        H  0.87848241  0.15624860  0.52979274     0.10800
C538        C  0.92529441  0.07155439  0.56466281    -0.15100
C539        C  0.93377794  0.04502819  0.56782372     0.03800
C540        C  0.95754393  0.03618771  0.55529985    -0.10400
C541        C  0.97161689  0.05402782  0.53865087    -0.00500
C542        C  0.96339582  0.08074064  0.53601774    -0.05600
H543        H  0.90751958  0.07837471  0.57515195     0.06800
H544        H  0.99006972  0.04759584  0.52913454     0.10200
Br545      Br  0.88942308  0.10167817  0.51197016    -0.05300
Br546      Br  0.95541275  0.18723746  0.59025263    -0.02300
Br547      Br  0.91396876  0.02283843  0.59207222     0.00600
Br548      Br  0.98489318  0.10448264  0.51503963    -0.03800
C549        C  0.85165778  0.30278384  0.53149004    -0.11200
C550        C  0.87378512  0.31476213  0.51863872     0.04300
C551        C  0.87247421  0.34166178  0.51086783    -0.11700
C552        C  0.84953701  0.35717611  0.51610829     0.19100
C553        C  0.82671315  0.34469631  0.52712430    -0.08800
C554        C  0.82786316  0.31764416  0.53446972    -0.01700
H555        H  0.88979577  0.35080950  0.50148900     0.05700
C556        C  0.85032411  0.38635463  0.51057527     0.21100
H557        H  0.81070819  0.30878173  0.54439884     0.10800
C558        C  0.83317967  0.39733533  0.49102702    -0.15100
C559        C  0.83514057  0.42435824  0.48383418     0.03800
C560        C  0.85496346  0.44065406  0.49576706    -0.10400
C561        C  0.87094779  0.43015798  0.51644298    -0.00500
C562        C  0.86887261  0.40322378  0.52383687    -0.05600
H563        H  0.81862112  0.38471032  0.48092307     0.06800
H564        H  0.88591034  0.44268922  0.52606671     0.10200
Br565      Br  0.79443032  0.36419441  0.53499775    -0.05300
Br566      Br  0.90626124  0.29541882  0.51128473    -0.02300
Br567      Br  0.81035357  0.43815043  0.45769751     0.00600
Br568      Br  0.89212968  0.39044766  0.55189769    -0.03800
C569        C  0.21374716  0.34090070  0.19506963    -0.11200
C570        C  0.20856255  0.35906621  0.21626455     0.04300
C571        C  0.19787942  0.34959345  0.24048308    -0.11700
C572        C  0.19230550  0.32228940  0.24398559     0.19100
C573        C  0.19694451  0.30434259  0.22281003    -0.08800
C574        C  0.20732234  0.31369890  0.19864765    -0.01700
H575        H  0.19433729  0.36347192  0.25682570     0.05700
C576        C  0.18351244  0.31218578  0.27031265     0.21100
H577        H  0.21127873  0.29928327  0.18288350     0.10800
C578        C  0.15684098  0.30390506  0.27380700    -0.15100
C579        C  0.14883992  0.29088356  0.29738707     0.03800
C580        C  0.16792712  0.28588051  0.31793359    -0.10400
C581        C  0.19440963  0.29520671  0.31448971    -0.00500
C582        C  0.20224609  0.30815095  0.29103447    -0.05600
H583        H  0.14236627  0.30698252  0.25779119     0.06800
H584        H  0.20951197  0.29185235  0.32984906     0.10200
Br585      Br  0.19114621  0.26651199  0.22659670    -0.05300
Br586      Br  0.21509637  0.39685410  0.21357310    -0.02300
Br587      Br  0.11180007  0.28053759  0.29973639     0.00600
Br588      Br  0.23922669  0.31845610  0.28757125    -0.03800
C589        C  0.45554211  0.46331638  0.11901010    -0.11200
C590        C  0.44825959  0.43795880  0.12893054     0.04300
C591        C  0.42284496  0.42756834  0.12313489    -0.11700
C592        C  0.40438644  0.44222215  0.10768026     0.19100
C593        C  0.41190958  0.46716135  0.09703293    -0.08800
C594        C  0.43745727  0.47748034  0.10259445    -0.01700
H595        H  0.41694346  0.40857976  0.13181909     0.05700
C596        C  0.37634288  0.43289468  0.10643144     0.21100
H597        H  0.44281406  0.49711396  0.09509914     0.10800
C598        C  0.35969771  0.43842068  0.12827862    -0.15100
C599        C  0.33374647  0.42796627  0.12967489     0.03800
C600        C  0.32412131  0.41101333  0.10893289    -0.10400
C601        C  0.34057725  0.40667383  0.08633100    -0.00500
C602        C  0.36646621  0.41754108  0.08494526    -0.05600
H603        H  0.36724993  0.45051059  0.14472246     0.06800
H604        H  0.33371742  0.39401463  0.07002817     0.10200
Br605      Br  0.38721937  0.48842929  0.07646027    -0.05300
Br606      Br  0.47116410  0.41810181  0.15274043    -0.02300
Br607      Br  0.31351847  0.43735600  0.16107650     0.00600
Br608      Br  0.38800880  0.41021343  0.05393677    -0.03800
C609        C  0.18703900  0.37606625  0.07011721    -0.11200
C610        C  0.18226443  0.36625649  0.04391394     0.04300
C611        C  0.15785946  0.37206588  0.03100721    -0.11700
C612        C  0.13822325  0.38770628  0.04370835     0.19100
C613        C  0.14272638  0.39693242  0.06996673    -0.08800
C614        C  0.16699015  0.39127639  0.08282880    -0.01700
H615        H  0.15432264  0.36470596  0.01084620     0.05700
C616        C  0.11339103  0.39493732  0.02919760     0.21100
H617        H  0.16997751  0.39848728  0.10314294     0.10800
C618        C  0.09296636  0.37586669  0.02606083    -0.15100
C619        C  0.06889113  0.38249039  0.01297068     0.03800
C620        C  0.06521090  0.40853779  0.00255882    -0.10400
C621        C  0.08545402  0.42766352  0.00654026    -0.00500
C622        C  0.10950009  0.42104991  0.01935983    -0.05600
H623        H  0.09575559  0.35580973  0.03389547     0.06800
H624        H  0.08276111  0.44774281  0.99907740     0.10200
Br625      Br  0.11595491  0.41671047  0.08931724    -0.05300
Br626      Br  0.20858416  0.34624418  0.02416979    -0.02300
Br627      Br  0.04217529  0.35504720  0.00932609     0.00600
Br628      Br  0.13666908  0.44818212  0.02232333    -0.03800
C629        C  0.45359021  0.50594873  0.15896100    -0.11200
C630        C  0.44096186  0.52946761  0.14970800     0.04300
C631        C  0.41412861  0.53458732  0.15631792    -0.11700
C632        C  0.39939819  0.51635934  0.17181497     0.19100
C633        C  0.41218240  0.49324692  0.18176013    -0.08800
C634        C  0.43919983  0.48836890  0.17559703    -0.01700
H635        H  0.40429669  0.55222423  0.14824053     0.05700
C636        C  0.37011325  0.52055415  0.17465449     0.21100
H637        H  0.44857310  0.47002364  0.18250758     0.10800
C638        C  0.35316443  0.51193143  0.15389139    -0.15100
C639        C  0.32590843  0.51881287  0.15356403     0.03800
C640        C  0.31515705  0.53500338  0.17426204    -0.10400
C641        C  0.33186012  0.54191400  0.19607175    -0.00500
C642        C  0.35916646  0.53490404  0.19631542    -0.05600
H643        H  0.36142689  0.50055589  0.13732775     0.06800
H644        H  0.32412286  0.55423035  0.21220380     0.10200
Br645      Br  0.39289415  0.46695053  0.20200664    -0.05300
Br646      Br  0.45861729  0.55360303  0.12561333    -0.02300
Br647      Br  0.30480664  0.50562772  0.12402042     0.00600
Br648      Br  0.38118147  0.54672497  0.22568185    -0.03800
C649        C  0.18050521  0.54995063  0.11017688    -0.11200
C650        C  0.17457610  0.56131856  0.08474826     0.04300
C651        C  0.15021003  0.55540237  0.07204536    -0.11700
C652        C  0.13161502  0.53812379  0.08390663     0.19100
C653        C  0.13826384  0.52506032  0.10797000    -0.08800
C654        C  0.16247349  0.53108390  0.12095911    -0.01700
H655        H  0.14525740  0.56514739  0.05321213     0.05700
C656        C  0.10462227  0.53617680  0.07186718     0.21100
H657        H  0.16665567  0.52166193  0.14010780     0.10800
C658        C  0.10114863  0.52216481  0.04771335    -0.15100
C659        C  0.07697071  0.52404519  0.03343828     0.03800
C660        C  0.05625848  0.54069057  0.04301510    -0.10400
C661        C  0.05897358  0.55283810  0.06825485    -0.00500
C662        C  0.08305524  0.55096884  0.08256308    -0.05600
H663        H  0.11753113  0.51040766  0.03960369     0.06800
H664        H  0.04294386  0.56532489  0.07599662     0.10200
Br665      Br  0.11449359  0.49950871  0.12403486    -0.05300
Br666      Br  0.19792664  0.58559442  0.06613968    -0.02300
Br667      Br  0.07293550  0.50343459  0.00127953     0.00600
Br668      Br  0.08636295  0.57110592  0.11525292    -0.03800
C669        C  0.19999536  0.41225840  0.88811348    -0.11200
C670        C  0.17846210  0.42566197  0.87510869     0.04300
C671        C  0.15464844  0.43058176  0.88898431    -0.11700
C672        C  0.15184618  0.42283154  0.91577891     0.19100
C673        C  0.17383160  0.41136314  0.92938081    -0.08800
C674        C  0.19758651  0.40583389  0.91545512    -0.01700
H675        H  0.13772369  0.43940413  0.87843914     0.05700
C676        C  0.12480624  0.42363809  0.92772096     0.21100
H677        H  0.21402110  0.39604042  0.92588693     0.10800
C678        C  0.10986112  0.39986413  0.92846824    -0.15100
C679        C  0.08333951  0.39991635  0.93749348     0.03800
C680        C  0.07145743  0.42401744  0.94605716    -0.10400
C681        C  0.08611391  0.44795629  0.94454578    -0.00500
C682        C  0.11278169  0.44785036  0.93574541    -0.05600
H683        H  0.11876894  0.38127596  0.92160174     0.06800
H684        H  0.07706566  0.46656871  0.95109337     0.10200
Br685      Br  0.17208805  0.40291845  0.96681994    -0.05300
Br686      Br  0.17873030  0.43552764  0.83781277    -0.02300
Br687      Br  0.06378193  0.36684780  0.93696676     0.00600
Br688      Br  0.13241080  0.48084592  0.93595121    -0.03800
C689        C  0.46646920  0.47971028  0.86362389    -0.11200
C690        C  0.45736790  0.47545106  0.83715460     0.04300
C691        C  0.43218713  0.46381947  0.83266821    -0.11700
C692        C  0.41572561  0.45673316  0.85431644     0.19100
C693        C  0.42514235  0.46044307  0.88075722    -0.08800
C694        C  0.45056996  0.47132716  0.88518094    -0.01700
H695        H  0.42526353  0.46060943  0.81227120     0.05700
C696        C  0.38904667  0.44488046  0.84926335     0.21100
H697        H  0.45763131  0.47406215  0.90558522     0.10800
C698        C  0.38450141  0.41839638  0.85725483    -0.15100
C699        C  0.35901268  0.40705526  0.85515760     0.03800
C700        C  0.33746218  0.42236333  0.84480616    -0.10400
C701        C  0.34227626  0.44842947  0.83551084    -0.00500
C702        C  0.36789072  0.45979177  0.83772381    -0.05600
H703        H  0.40086523  0.40660194  0.86549827     0.06800
H704        H  0.32597743  0.46017180  0.82708590     0.10200
Br705      Br  0.40339264  0.45248115  0.91148161    -0.05300
Br706      Br  0.47829742  0.48578581  0.80663322    -0.02300
Br707      Br  0.35536292  0.37010906  0.86545125     0.00600
Br708      Br  0.37276590  0.49593124  0.82564040    -0.03800
C709        C  0.12953853  0.28540212  0.68850871    -0.11200
C710        C  0.12045105  0.31214253  0.68918524     0.04300
C711        C  0.13314011  0.33060733  0.70617375    -0.11700
C712        C  0.15467375  0.32251804  0.72246984     0.19100
C713        C  0.16261722  0.29547023  0.72290731    -0.08800
C714        C  0.15024842  0.27720633  0.70574506    -0.01700
H715        H  0.12685843  0.35139308  0.70601225     0.05700
C716        C  0.16945491  0.34215140  0.73870288     0.21100
H717        H  0.15742462  0.25670447  0.70518388     0.10800
C718        C  0.16097670  0.34680028  0.76499883    -0.15100
C719        C  0.17824303  0.35877052  0.78352610     0.03800
C720        C  0.20432122  0.36639904  0.77560115    -0.10400
C721        C  0.21170871  0.36433161  0.74856474    -0.00500
C722        C  0.19446549  0.35204549  0.73008995    -0.05600
H723        H  0.14167581  0.33932714  0.77161403     0.06800
H724        H  0.23166915  0.37019616  0.74228292     0.10200
Br725      Br  0.19100402  0.28285749  0.74591936    -0.05300
Br726      Br  0.09278783  0.32483934  0.66543113    -0.02300
Br727      Br  0.16570514  0.36283256  0.81973289     0.00600
Br728      Br  0.20689193  0.34653222  0.69409290    -0.03800
C729        C  0.46465529  0.53447671  0.88373883    -0.11200
C730        C  0.45065961  0.54752997  0.86291639     0.04300
C731        C  0.42350508  0.55387799  0.86609433    -0.11700
C732        C  0.41005408  0.54752729  0.88992717     0.19100
C733        C  0.42434717  0.53570391  0.91126003    -0.08800
C734        C  0.45160645  0.52961444  0.90817725    -0.01700
H735        H  0.41277099  0.56371043  0.84988709     0.05700
C736        C  0.38161763  0.55530459  0.89259015     0.21100
H737        H  0.46227069  0.51962862  0.92432825     0.10800
C738        C  0.36117392  0.53704168  0.88609356    -0.15100
C739        C  0.33418415  0.54524068  0.88527040     0.03800
C740        C  0.32747453  0.57193303  0.89189518    -0.10400
C741        C  0.34805987  0.58967270  0.89952689    -0.00500
C742        C  0.37488334  0.58167317  0.89956033    -0.05600
H743        H  0.36631650  0.51656896  0.88108915     0.06800
H744        H  0.34342694  0.61032038  0.90440585     0.10200
Br745      Br  0.40723699  0.52679489  0.94447494    -0.05300
Br746      Br  0.46776036  0.55685705  0.82982651    -0.02300
Br747      Br  0.30760003  0.51922697  0.87525887     0.00600
Br748      Br  0.40188662  0.60772796  0.90820872    -0.03800
C749        C  0.19126012  0.59772654  0.94008705    -0.11200
C750        C  0.18459421  0.57236814  0.95069292     0.04300
C751        C  0.15921272  0.56827804  0.96195625    -0.11700
C752        C  0.14011773  0.58897002  0.96247062     0.19100
C753        C  0.14712463  0.61450738  0.95293573    -0.08800
C754        C  0.17263493  0.61878937  0.94224571    -0.01700
H755        H  0.15403563  0.54865852  0.96965444     0.05700
C756        C  0.11271197  0.58327147  0.97207135     0.21100
H757        H  0.17717401  0.63825859  0.93381177     0.10800
C758        C  0.10355498  0.59534269  0.99576843    -0.15100
C759        C  0.07773336  0.59010539  0.00536470     0.03800
C760        C  0.06124884  0.57147239  0.99188291    -0.10400
C761        C  0.06988652  0.56058385  0.96743789    -0.00500
C762        C  0.09536371  0.56640083  0.95743410    -0.05600
H763        H  0.11639398  0.60920056  0.00656191     0.06800
H764        H  0.05689093  0.54710496  0.95633890     0.10200
Br765      Br  0.12166550  0.64338176  0.95141039    -0.05300
Br766      Br  0.20907517  0.54261955  0.95035708    -0.02300
Br767      Br  0.06508750  0.61068708  0.03527802     0.00600
Br768      Br  0.10508640  0.55175572  0.92320100    -0.03800
C769        C  0.36313757  0.18131177  0.20014418    -0.11200
C770        C  0.33599067  0.18956793  0.20115097     0.04300
C771        C  0.32664548  0.20895395  0.18329513    -0.11700
C772        C  0.34379025  0.22040142  0.16427863     0.19100
C773        C  0.37091493  0.21246696  0.16340422    -0.08800
C774        C  0.38042359  0.19308706  0.18134920    -0.01700
H775        H  0.30599028  0.21570497  0.18472316     0.05700
C776        C  0.33356527  0.24314042  0.14842110     0.21100
H777        H  0.40119951  0.18670859  0.18013178     0.10800
C778        C  0.34371088  0.26860927  0.15420338    -0.15100
C779        C  0.33083293  0.29149122  0.14469179     0.03800
C780        C  0.30696790  0.28905301  0.12942358    -0.10400
C781        C  0.29817795  0.26349502  0.12159438    -0.00500
C782        C  0.31130724  0.24053415  0.13105075    -0.05600
H783        H  0.36093438  0.27076034  0.16741212     0.06800
H784        H  0.28013708  0.26130639  0.10955196     0.10200
Br785      Br  0.39536196  0.22697278  0.13755381    -0.05300
Br786      Br  0.31091969  0.17653575  0.22736408    -0.02300
Br787      Br  0.34668798  0.32539250  0.15389985     0.00600
Br788      Br  0.29758366  0.20610084  0.12078111    -0.03800
C789        C  0.32550498  0.12417202  0.30327855    -0.11200
C790        C  0.33057584  0.12987143  0.33057861     0.04300
C791        C  0.31032039  0.14105520  0.34650141    -0.11700
C792        C  0.28499923  0.14694902  0.33553014     0.19100
C793        C  0.27981934  0.14077742  0.30834836    -0.08800
C794        C  0.29986731  0.12903964  0.29261800    -0.01700
H795        H  0.31452622  0.14578568  0.36732793     0.05700
C796        C  0.26484733  0.16126030  0.35200252     0.21100
H797        H  0.29600503  0.12551848  0.27148238     0.10800
C798        C  0.26910618  0.18831373  0.35840525    -0.15100
C799        C  0.24892169  0.20356279  0.37066377     0.03800
C800        C  0.22401348  0.19165148  0.37679526    -0.10400
C801        C  0.22033556  0.16422978  0.37159835    -0.00500
C802        C  0.24062506  0.14896359  0.35961319    -0.05600
H803        H  0.28768778  0.19794504  0.35258581     0.06800
H804        H  0.20129457  0.15482064  0.37618574     0.10200
Br805      Br  0.24672097  0.15059543  0.29101301    -0.05300
Br806      Br  0.36494574  0.12295493  0.34687946    -0.02300
Br807      Br  0.25521101  0.24120486  0.37538510     0.00600
Br808      Br  0.23423169  0.11156963  0.35335090    -0.03800
C809        C  0.40286751  0.06761160  0.17288169    -0.11200
C810        C  0.38738790  0.04544912  0.16419207     0.04300
C811        C  0.38932645  0.03652274  0.13757179    -0.11700
C812        C  0.40626729  0.04910283  0.11905963     0.19100
C813        C  0.42180174  0.07102380  0.12759655    -0.08800
C814        C  0.42028266  0.07981178  0.15424983    -0.01700
H815        H  0.37703088  0.01998876  0.13099067     0.05700
C816        C  0.40577863  0.04014927  0.09061209     0.21100
H817        H  0.43201428  0.09715329  0.16002635     0.10800
C818        C  0.38210350  0.04365888  0.07557767    -0.15100
C819        C  0.38002587  0.03392321  0.04928334     0.03800
C820        C  0.40194044  0.02058269  0.03749001    -0.10400
C821        C  0.42600989  0.01808963  0.05205232    -0.00500
C822        C  0.42787669  0.02715914  0.07862153    -0.05600
H823        H  0.36496344  0.05355889  0.08456198     0.06800
H824        H  0.44298563  0.00785088  0.04316059     0.10200
Br825      Br  0.44349611  0.09116606  0.10308504    -0.05300
Br826      Br  0.36273155  0.02664188  0.18694772    -0.02300
Br827      Br  0.34663008  0.03855795  0.03052631     0.00600
Br828      Br  0.46005466  0.01910392  0.09834925    -0.03800
C829        C  0.50980329  0.10288014  0.43991232    -0.11200
C830        C  0.52490487  0.11493570  0.41699012     0.04300
C831        C  0.50836040  0.11579646  0.39283775    -0.11700
C832        C  0.48425506  0.10198440  0.38924181     0.19100
C833        C  0.47399453  0.08677613  0.41012354    -0.08800
C834        C  0.48651626  0.08744540  0.43497624    -0.01700
H835        H  0.51372702  0.12746978  0.37548245     0.05700
C836        C  0.47068315  0.10336961  0.36269921     0.21100
H837        H  0.47722769  0.07585751  0.45061154     0.10800
C838        C  0.46925541  0.08032391  0.34660563    -0.15100
C839        C  0.45778713  0.08125738  0.32091855     0.03800
C840        C  0.44715372  0.10556286  0.31105566    -0.10400
C841        C  0.44939386  0.12877441  0.32688381    -0.00500
C842        C  0.46097669  0.12784487  0.35247183    -0.05600
H843        H  0.47749777  0.06159643  0.35393924     0.06800
H844        H  0.44106441  0.14756659  0.31981681     0.10200
Br845      Br  0.44101556  0.06712353  0.40659291    -0.05300
Br846      Br  0.59335458  0.14368401  0.42166817    -0.02300
Br847      Br  0.45851310  0.04911652  0.29978846     0.00600
Br848      Br  0.46181724  0.16026327  0.37324519    -0.03800
C849        C  0.37535741  0.89747572  0.16204722    -0.11200
C850        C  0.38918142  0.88505444  0.14047410     0.04300
C851        C  0.39203870  0.89849525  0.11594893    -0.11700
C852        C  0.38113683  0.92409702  0.11196137     0.19100
C853        C  0.36694130  0.93625891  0.13315722    -0.08800
C854        C  0.36444982  0.92314611  0.15787265    -0.01700
H855        H  0.40237878  0.88861746  0.09958901     0.05700
C856        C  0.38410710  0.93730181  0.08534844     0.21100
H857        H  0.35348039  0.93301416  0.17380970     0.10800
C858        C  0.36111236  0.94314435  0.06990676    -0.15100
C859        C  0.36320971  0.95612248  0.04504822     0.03800
C860        C  0.38867133  0.96328670  0.03515016    -0.10400
C861        C  0.41166523  0.95616884  0.04984382    -0.00500
C862        C  0.40961732  0.94360837  0.07483091    -0.05600
H863        H  0.34142299  0.93775528  0.07733634     0.06800
H864        H  0.43136670  0.96095331  0.04206621     0.10200
Br865      Br  0.35017577  0.97061178  0.12944823    -0.05300
Br866      Br  0.40325598  0.84921538  0.14187131    -0.02300
Br867      Br  0.33082408  0.96386002  0.02553032     0.00600
Br868      Br  0.44234166  0.93677375  0.09415351    -0.03800
C869        C  0.40793842  0.86389564  0.30526155    -0.11200
C870        C  0.39600143  0.87452612  0.32871982     0.04300
C871        C  0.40976089  0.87344698  0.35325790    -0.11700
C872        C  0.43532834  0.86188120  0.35509410     0.19100
C873        C  0.44755147  0.85184146  0.33170861    -0.08800
C874        C  0.43381644  0.85276114  0.30710401    -0.01700
H875        H  0.40010683  0.88094227  0.37122346     0.05700
C876        C  0.44795650  0.85901187  0.38191000     0.21100
H877        H  0.44323578  0.84436878  0.28941787     0.10800
C878        C  0.44247262  0.83608955  0.39723020    -0.15100
C879        C  0.45321356  0.83311126  0.42310674     0.03800
C880        C  0.47001432  0.85313236  0.43387558    -0.10400
C881        C  0.47521479  0.87620457  0.41865118    -0.00500
C882        C  0.46410868  0.87936175  0.39296401    -0.05600
H883        H  0.42972318  0.82050422  0.38902780     0.06800
H884        H  0.48808939  0.89173289  0.42676074     0.10200
Br885      Br  0.48260192  0.83610327  0.33249986    -0.05300
Br886      Br  0.35992048  0.88820655  0.32946479    -0.02300
Br887      Br  0.44512037  0.80107447  0.44267984     0.00600
Br888      Br  0.47106799  0.91189322  0.37383288    -0.03800
C889        C  0.28118124  0.65789539  0.15121390    -0.11200
C890        C  0.30881481  0.66050533  0.14603901     0.04300
C891        C  0.32159904  0.68495527  0.15119857    -0.11700
C892        C  0.30695878  0.70672164  0.16139738     0.19100
C893        C  0.27896301  0.70459913  0.16450425    -0.08800
C894        C  0.26632858  0.68021742  0.15953106    -0.01700
H895        H  0.34315925  0.68653985  0.14876829     0.05700
C896        C  0.32110919  0.73034885  0.17195213     0.21100
H897        H  0.24508904  0.67819733  0.16381127     0.10800
C898        C  0.31898128  0.75468139  0.15819942    -0.15100
C899        C  0.32758833  0.77846194  0.17017069     0.03800
C900        C  0.33913822  0.77793227  0.19610614    -0.10400
C901        C  0.34272451  0.75331965  0.20919493    -0.00500
C902        C  0.33337847  0.72962110  0.19748176    -0.05600
H903        H  0.30936679  0.75532187  0.13865120     0.06800
H904        H  0.35129158  0.75271896  0.22921960     0.10200
Br905      Br  0.25762719  0.73350764  0.17839463    -0.05300
Br906      Br  0.33020525  0.63048954  0.13504186    -0.02300
Br907      Br  0.32265108  0.81106755  0.15025948     0.00600
Br908      Br  0.33517734  0.69720507  0.21815752    -0.03800
C909        C  0.55569851  0.12764308  0.45116621    -0.11200
C910        C  0.54522092  0.15397273  0.43491500     0.04300
C911        C  0.54736021  0.15465040  0.40254242    -0.11700
C912        C  0.55975531  0.12905268  0.38623463     0.19100
C913        C  0.56928562  0.10267366  0.40271288    -0.08800
C914        C  0.56742707  0.10200694  0.43487621    -0.01700
H915        H  0.54062345  0.17202932  0.39181962     0.05700
C916        C  0.56522440  0.13234516  0.35700106     0.21100
H917        H  0.57281578  0.08407373  0.44549706     0.10800
C918        C  0.57780938  0.15611419  0.34875424    -0.15100
C919        C  0.58529202  0.16017472  0.32203896     0.03800
C920        C  0.58044643  0.14000725  0.30277646    -0.10400
C921        C  0.56658221  0.11687979  0.31060045    -0.00500
C922        C  0.55855866  0.11303489  0.33722544    -0.05600
H923        H  0.58287911  0.17135230  0.36341729     0.06800
H924        H  0.56235632  0.10140381  0.29591484     0.10200
Br925      Br  0.58937023  0.07425296  0.38649147    -0.05300
Br926      Br  0.52700010  0.18237412  0.45306714    -0.02300
Br927      Br  0.60443646  0.19255390  0.31400559     0.00600
Br928      Br  0.53775184  0.08149941  0.34406903    -0.03800
C929        C  0.60149994  0.08826077  0.16729112    -0.11200
C930        C  0.59095784  0.09970127  0.14347914     0.04300
C931        C  0.58640998  0.08360089  0.12097123    -0.11700
C932        C  0.59125361  0.05594409  0.12169062     0.19100
C933        C  0.60114675  0.04433553  0.14554690    -0.08800
C934        C  0.60649887  0.06053135  0.16794692    -0.01700
H935        H  0.57906764  0.09277158  0.10263484     0.05700
C936        C  0.58600937  0.03992353  0.09712510     0.21100
H937        H  0.61442658  0.05136091  0.18603021     0.10800
C938        C  0.60742734  0.02707638  0.08404427    -0.15100
C939        C  0.60329834  0.01349882  0.05974947     0.03800
C940        C  0.57748906  0.01288967  0.04807809    -0.10400
C941        C  0.55615654  0.02579553  0.06103367    -0.00500
C942        C  0.56014234  0.03894517  0.08550454    -0.05600
H943        H  0.62748835  0.02804001  0.09251207     0.06800
H944        H  0.53624215  0.02537148  0.05217167     0.10200
Br945      Br  0.60661827  0.00641089  0.14883587    -0.05300
Br946      Br  0.58356580  0.13730063  0.13942903    -0.02300
Br947      Br  0.63352665  0.99689152  0.04269351     0.00600
Br948      Br  0.52946882  0.05472038  0.10259289    -0.03800
C949        C  0.70142541  0.14190218  0.27860315    -0.11200
C950        C  0.70114171  0.14855689  0.30611226     0.04300
C951        C  0.72491143  0.15627778  0.31896351    -0.11700
C952        C  0.74903536  0.15829229  0.30464967     0.19100
C953        C  0.74970078  0.14946850  0.27766297    -0.08800
C954        C  0.72598663  0.14116991  0.26499051    -0.01700
H955        H  0.72432852  0.16193020  0.33995723     0.05700
C956        C  0.77262944  0.17125011  0.31752929     0.21100
H957        H  0.72644288  0.13603939  0.24385391     0.10800
C958        C  0.79705853  0.15730756  0.31923486    -0.15100
C959        C  0.82053817  0.17016669  0.32775124     0.03800
C960        C  0.81967557  0.19743316  0.33532716    -0.10400
C961        C  0.79479096  0.21061293  0.33603946    -0.00500
C962        C  0.77141825  0.19791335  0.32704808    -0.05600
H963        H  0.79805100  0.13653723  0.31299739     0.06800
H964        H  0.79374460  0.23150154  0.34187374     0.10200
Br965      Br  0.78163321  0.15065663  0.25616665    -0.05300
Br966      Br  0.66881855  0.14778194  0.32699391    -0.02300
Br967      Br  0.85306430  0.14937307  0.32837192     0.00600
Br968      Br  0.73912036  0.21903302  0.32601617    -0.03800
C969        C  0.52706361  0.83999310  0.43570032    -0.11200
C970        C  0.54478646  0.85971190  0.42615142     0.04300
C971        C  0.55564389  0.85733922  0.40035416    -0.11700
C972        C  0.54827613  0.83599612  0.38340153     0.19100
C973        C  0.53097403  0.81596363  0.39340416    -0.08800
C974        C  0.52088609  0.81796185  0.41941942    -0.01700
H975        H  0.56927629  0.87262540  0.39321049     0.05700
C976        C  0.55861869  0.83484016  0.35546153     0.21100
H977        H  0.50707055  0.80284657  0.42658233     0.10800
C978        C  0.57265098  0.81195786  0.34702249    -0.15100
C979        C  0.58140252  0.80925324  0.32053085     0.03800
C980        C  0.57702666  0.83018787  0.30198725    -0.10400
C981        C  0.56379213  0.85348048  0.31059426    -0.00500
C982        C  0.55435990  0.85586104  0.33693658    -0.05600
H983        H  0.57676483  0.79598362  0.36117575     0.06800
H984        H  0.56061045  0.86986967  0.29668160     0.10200
Br985      Br  0.51861861  0.78638269  0.37202873    -0.05300
Br986      Br  0.55283457  0.89121952  0.44674684    -0.02300
Br987      Br  0.60069420  0.77716237  0.31155028     0.00600
Br988      Br  0.53506718  0.88789479  0.34598677    -0.03800
C989        C  0.56846073  0.95435151  0.04471640    -0.11200
C990        C  0.58832072  0.93437855  0.04800511     0.04300
C991        C  0.59132831  0.92146230  0.07273135    -0.11700
C992        C  0.57481130  0.92795006  0.09448798     0.19100
C993        C  0.55438763  0.94717586  0.09111635    -0.08800
C994        C  0.55105007  0.95984336  0.06623533    -0.01700
H995        H  0.60696708  0.90652214  0.07516083     0.05700
C996        C  0.57961475  0.91439775  0.12045325     0.21100
H997        H  0.53532289  0.97466675  0.06393727     0.10800
C998        C  0.60220706  0.92142761  0.13576412    -0.15100
C999        C  0.60920635  0.90706087  0.15891814     0.03800
C1000       C  0.59334857  0.88496856  0.16709888    -0.10400
C1001       C  0.57008141  0.87877872  0.15212967    -0.00500
C1002       C  0.56331113  0.89310762  0.12893422    -0.05600
H1003       H  0.61483161  0.93784778  0.12927612     0.06800
H1004       H  0.55762912  0.86193219  0.15775171     0.10200
Br1005     Br  0.53167664  0.95774170  0.12030467    -0.05300
Br1006     Br  0.61297308  0.92477882  0.02010555    -0.02300
Br1007     Br  0.64089930  0.91873046  0.17771977     0.00600
Br1008     Br  0.53274602  0.88168086  0.10831671    -0.03800
C1009       C  0.30811008  0.30744527  0.82675669    -0.11200
C1010       C  0.29859015  0.28132803  0.83161921     0.04300
C1011       C  0.31408616  0.25923478  0.82381447    -0.11700
C1012       C  0.33890886  0.26269623  0.81093687     0.19100
C1013       C  0.34879742  0.28876952  0.80695683    -0.08800
C1014       C  0.33346238  0.31079533  0.81490459    -0.01700
H1015       H  0.30597367  0.23926315  0.82630808     0.05700
C1016       C  0.35170040  0.23925837  0.79803129     0.21100
H1017       H  0.34110892  0.33074801  0.81111128     0.10800
C1018       C  0.35225856  0.23822653  0.76988967    -0.15100
C1019       C  0.35990321  0.21488980  0.75646122     0.03800
C1020       C  0.36687883  0.19186854  0.77130674    -0.10400
C1021       C  0.36741514  0.19321324  0.79947421    -0.00500
C1022       C  0.36017248  0.21677146  0.81288201    -0.05600
H1023       H  0.34536381  0.25527136  0.75827791     0.06800
H1024       H  0.37289599  0.17567589  0.81109116     0.10200
Br1025     Br  0.38266593  0.29538249  0.78991231    -0.05300
Br1026     Br  0.26333757  0.27454274  0.84545392    -0.02300
Br1027     Br  0.35712165  0.21480674  0.71800730     0.00600
Br1028     Br  0.36191778  0.21726537  0.85135831    -0.03800
C1029       C  0.29746912  0.13217464  0.68782640    -0.11200
C1030       C  0.28396103  0.11469827  0.67012812     0.04300
C1031       C  0.26105880  0.12365975  0.65628577    -0.11700
C1032       C  0.25166824  0.14997154  0.65962083     0.19100
C1033       C  0.26519299  0.16736234  0.67732262    -0.08800
C1034       C  0.28796303  0.15845384  0.69104610    -0.01700
H1035       H  0.25065140  0.11017210  0.64275267     0.05700
C1036       C  0.22663725  0.15863783  0.64625691     0.21100
H1037       H  0.29818766  0.17210755  0.70457461     0.10800
C1038       C  0.20218234  0.14989375  0.65674746    -0.15100
C1039       C  0.17797925  0.16136259  0.64834400     0.03800
C1040       C  0.17811136  0.18243804  0.62927287    -0.10400
C1041       C  0.20252268  0.18936041  0.61699984    -0.00500
C1042       C  0.22669661  0.17754461  0.62531478    -0.05600
H1043       H  0.20202238  0.13487210  0.67244734     0.06800
H1044       H  0.20307458  0.20503676  0.60198866     0.10200
Br1045     Br  0.25280961  0.20316941  0.68422741    -0.05300
Br1046     Br  0.29704424  0.07933606  0.66267391    -0.02300
Br1047     Br  0.14580009  0.14731384  0.66427258     0.00600
Br1048     Br  0.25946369  0.18858991  0.60850729    -0.03800
C1049       C  0.39042734  0.07085364  0.80333833    -0.11200
C1050       C  0.37852504  0.04687834  0.81244712     0.04300
C1051       C  0.38374352  0.03785880  0.83859701    -0.11700
C1052       C  0.40001137  0.05273350  0.85618850     0.19100
C1053       C  0.41210770  0.07639793  0.84707752    -0.08800
C1054       C  0.40767444  0.08498409  0.82075658    -0.01700
H1055       H  0.37436571  0.01960087  0.84557089     0.05700
C1056       C  0.40199666  0.04450069  0.88459115     0.21100
H1057       H  0.41667167  0.10366792  0.81438069     0.10800
C1058       C  0.42403181  0.02933423  0.89346111    -0.15100
C1059       C  0.42483356  0.01928733  0.91971327     0.03800
C1060       C  0.40308817  0.02392354  0.93720006    -0.10400
C1061       C  0.38203535  0.04070132  0.92883655    -0.00500
C1062       C  0.38142646  0.05102924  0.90274635    -0.05600
H1063       H  0.44033470  0.02489450  0.87980973     0.06800
H1064       H  0.36533432  0.04459089  0.94216977     0.10200
Br1065     Br  0.43289673  0.09880945  0.87052546    -0.05300
Br1066     Br  0.35495701  0.02568802  0.79048978    -0.02300
Br1067     Br  0.45594474  0.99949714  0.93091189     0.00600
Br1068     Br  0.35182377  0.07342696  0.89232445    -0.03800
C1069       C  0.42447011  0.09290914  0.66560760    -0.11200
C1070       C  0.41927332  0.07197702  0.64701939     0.04300
C1071       C  0.43366297  0.07080859  0.62285993    -0.11700
C1072       C  0.45327822  0.09000995  0.61689412     0.19100
C1073       C  0.45953475  0.10968668  0.63613427    -0.08800
C1074       C  0.44545747  0.11082742  0.66017280    -0.01700
H1075       H  0.42881225  0.05548216  0.60822134     0.05700
C1076       C  0.46535596  0.09114380  0.58981484     0.21100
H1077       H  0.45023707  0.12678879  0.67413250     0.10800
C1078       C  0.45909608  0.11307464  0.57331683    -0.15100
C1079       C  0.47254002  0.11711679  0.54911820     0.03800
C1080       C  0.49286439  0.09922996  0.54120740    -0.10400
C1081       C  0.49807945  0.07639276  0.55685447    -0.00500
C1082       C  0.48413256  0.07200845  0.58086525    -0.05600
H1083       H  0.44426801  0.12760622  0.57976758     0.06800
H1084       H  0.51348589  0.06234912  0.55070878     0.10200
Br1085     Br  0.48614415  0.13661005  0.63016216    -0.05300
Br1086     Br  0.39247088  0.04489324  0.65247389    -0.02300
Br1087     Br  0.46351151  0.14811887  0.52821904     0.00600
Br1088     Br  0.49198151  0.04027216  0.60113797    -0.03800
C1089       C  0.37032571  0.91840474  0.80178760    -0.11200
C1090       C  0.35026127  0.91424860  0.82131125     0.04300
C1091       C  0.35327101  0.92505951  0.84702595    -0.11700
C1092       C  0.37573641  0.94059449  0.85369688     0.19100
C1093       C  0.39513460  0.94595404  0.83387701    -0.08800
C1094       C  0.39259005  0.93445463  0.80827483    -0.01700
H1095       H  0.33828988  0.92078052  0.86214817     0.05700
C1096       C  0.37898663  0.95003488  0.88172413     0.21100
H1097       H  0.40810258  0.93787507  0.79348051     0.10800
C1098       C  0.39959611  0.93925466  0.89779979    -0.15100
C1099       C  0.40325574  0.94782297  0.92436666     0.03800
C1100       C  0.38638667  0.96786061  0.93501425    -0.10400
C1101       C  0.36489436  0.97744998  0.91939125    -0.00500
C1102       C  0.36113879  0.96879075  0.89296802    -0.05600
H1103       H  0.41293200  0.92419083  0.88958653     0.06800
H1104       H  0.35141719  0.99239266  0.92757771     0.10200
Br1105     Br  0.42499966  0.96926043  0.84085065    -0.05300
Br1106     Br  0.31954387  0.89181061  0.81500962    -0.02300
Br1107     Br  0.43182387  0.93200993  0.94497638     0.00600
Br1108     Br  0.33207130  0.98408333  0.87271417    -0.03800
C1109       C  0.40747915  0.87491852  0.66102836    -0.11200
C1110       C  0.39192260  0.87229346  0.63734299     0.04300
C1111       C  0.40458676  0.87123620  0.61237165    -0.11700
C1112       C  0.43256462  0.87302223  0.61046648     0.19100
C1113       C  0.44792829  0.87714542  0.63389420    -0.08800
C1114       C  0.43540674  0.87760558  0.65898663    -0.01700
H1115       H  0.39265579  0.86792901  0.59442590     0.05700
C1116       C  0.44530505  0.86752125  0.58432539     0.21100
H1117       H  0.44751532  0.87992793  0.67696235     0.10800
C1118       C  0.45116161  0.88865113  0.56678373    -0.15100
C1119       C  0.46250685  0.88353353  0.54160538     0.03800
C1120       C  0.46828488  0.85700145  0.53386669    -0.10400
C1121       C  0.46220275  0.83588990  0.55134994    -0.00500
C1122       C  0.45057024  0.84097208  0.57633590    -0.05600
H1123       H  0.44695311  0.90910353  0.57271949     0.06800
H1124       H  0.46680395  0.81545400  0.54563393     0.10200
Br1125     Br  0.48596820  0.88194410  0.63267313    -0.05300
Br1126     Br  0.35366379  0.86722974  0.63779938    -0.02300
Br1127     Br  0.47095950  0.91331191  0.51882557     0.00600
Br1128     Br  0.44199241  0.81111551  0.59896270    -0.03800
C1129       C  0.34925032  0.79631158  0.78773167    -0.11200
C1130       C  0.36797089  0.77953778  0.80095626     0.04300
C1131       C  0.35874116  0.75820641  0.81678061    -0.11700
C1132       C  0.33111438  0.75339958  0.81968173     0.19100
C1133       C  0.31253535  0.77032493  0.80690093    -0.08800
C1134       C  0.32162475  0.79143907  0.79118257    -0.01700
H1135       H  0.37311787  0.74506861  0.82652086     0.05700
C1136       C  0.32157484  0.72923815  0.83365716     0.21100
H1137       H  0.30679072  0.80385031  0.78116380     0.10800
C1138       C  0.30914033  0.73152576  0.85877905    -0.15100
C1139       C  0.29578580  0.70965058  0.87027151     0.03800
C1140       C  0.29460199  0.68498804  0.85624727    -0.10400
C1141       C  0.30818040  0.68275156  0.83158493    -0.00500
C1142       C  0.32153055  0.70449094  0.82034032    -0.05600
H1143       H  0.30901524  0.75068794  0.86900567     0.06800
H1144       H  0.30801060  0.66408027  0.82050073     0.10200
Br1145     Br  0.27444192  0.76461076  0.80919367    -0.05300
Br1146     Br  0.40604438  0.78499230  0.79893103    -0.02300
Br1147     Br  0.27892099  0.71551429  0.90437125     0.00600
Br1148     Br  0.33789696  0.69990351  0.78579675    -0.03800
C1149       C  0.57406608  0.85278334  0.67055035    -0.11200
C1150       C  0.58862879  0.86330847  0.64866972     0.04300
C1151       C  0.57898714  0.86016998  0.62253971    -0.11700
C1152       C  0.55493310  0.84660505  0.61735042     0.19100
C1153       C  0.54120484  0.83448054  0.63893824    -0.08800
C1154       C  0.55074315  0.83779680  0.66532129    -0.01700
H1155       H  0.59033128  0.86854621  0.60603298     0.05700
C1156       C  0.54460072  0.84617339  0.58933580     0.21100
H1157       H  0.53975913  0.82890018  0.68178568     0.10800
C1158       C  0.54211994  0.82175927  0.57547565    -0.15100
C1159       C  0.53260201  0.82109831  0.54892948     0.03800
C1160       C  0.52544414  0.84510726  0.53590292    -0.10400
C1161       C  0.52914749  0.86950806  0.54928503    -0.00500
C1162       C  0.53854099  0.87026062  0.57570808    -0.05600
H1163       H  0.54750547  0.80318164  0.58536280     0.06800
H1164       H  0.52387755  0.88808189  0.53934507     0.10200
Br1165     Br  0.50925594  0.81363842  0.63365262    -0.05300
Br1166     Br  0.62288901  0.88057749  0.65262351    -0.02300
Br1167     Br  0.52892791  0.78706403  0.53148833     0.00600
Br1168     Br  0.54166219  0.90485310  0.59234524    -0.03800
C1169       C  0.57909436  0.90761992  0.81322669    -0.11200
C1170       C  0.56786241  0.89246198  0.83444250     0.04300
C1171       C  0.56334319  0.90442916  0.85942283    -0.11700
C1172       C  0.56964933  0.93136713  0.86387267     0.19100
C1173       C  0.57966198  0.94683815  0.84254478    -0.08800
C1174       C  0.58452492  0.93491324  0.81753896    -0.01700
H1175       H  0.55583054  0.89236439  0.87583203     0.05700
C1176       C  0.56800252  0.94213493  0.89150956     0.21100
H1177       H  0.59309002  0.94688149  0.80159326     0.10800
C1178       C  0.59161222  0.94392444  0.90684786    -0.15100
C1179       C  0.59101597  0.95370005  0.93315105     0.03800
C1180       C  0.56647702  0.96168477  0.94465685    -0.10400
C1181       C  0.54266252  0.95897669  0.92964268    -0.00500
C1182       C  0.54334900  0.94962333  0.90307639    -0.05600
H1183       H  0.61062181  0.93785483  0.89821749     0.06800
H1184       H  0.52367698  0.96514126  0.93824129     0.10200
Br1185     Br  0.58715740  0.98420494  0.84691523    -0.05300
Br1186     Br  0.56083636  0.85467917  0.83195172    -0.02300
Br1187     Br  0.62428700  0.95612611  0.95251283     0.00600
Br1188     Br  0.51055903  0.94869154  0.88273991    -0.03800
C1189       C  0.57461236  0.02001070  0.94895886    -0.11200
C1190       C  0.59924228  0.03277949  0.94343832     0.04300
C1191       C  0.60244828  0.04686613  0.91941910    -0.11700
C1192       C  0.58157942  0.04835228  0.90042448     0.19100
C1193       C  0.55687888  0.03577470  0.90604567    -0.08800
C1194       C  0.55339983  0.02241988  0.93045408    -0.01700
H1195       H  0.62157738  0.05630308  0.91526021     0.05700
C1196       C  0.58692915  0.06171655  0.87440804     0.21100
H1197       H  0.53420058  0.01323758  0.93470430     0.10800
C1198       C  0.60768313  0.05177160  0.85827420    -0.15100
C1199       C  0.61492373  0.06447708  0.83436752     0.03800
C1200       C  0.60104734  0.08780989  0.82592466    -0.10400
C1201       C  0.58002188  0.09757727  0.84211573    -0.00500
C1202       C  0.57325608  0.08508500  0.86633683    -0.05600
H1203       H  0.61874957  0.03416805  0.86465102     0.06800
H1204       H  0.56949434  0.11576773  0.83657387     0.10200
Br1205     Br  0.52800104  0.03423773  0.88043632    -0.05300
Br1206     Br  0.62960123  0.03071900  0.96726868    -0.02300
Br1207     Br  0.64441872  0.04884499  0.81511058     0.00600
Br1208     Br  0.54721734  0.10230588  0.88890047    -0.03800
C1209       C  0.58154267  0.14217381  0.68664883    -0.11200
C1210       C  0.58894775  0.16235507  0.66824770     0.04300
C1211       C  0.58098943  0.16045016  0.64132495    -0.11700
C1212       C  0.56590341  0.13854481  0.63218814     0.19100
C1213       C  0.55819698  0.11857416  0.65065756    -0.08800
C1214       C  0.56593862  0.12058372  0.67759117    -0.01700
H1215       H  0.58770653  0.17547529  0.62718518     0.05700
C1216       C  0.56017238  0.13554574  0.60312899     0.21100
H1217       H  0.56056178  0.10467945  0.69134597     0.10800
C1218       C  0.57110345  0.11351743  0.58940735    -0.15100
C1219       C  0.56397425  0.10821985  0.56278503     0.03800
C1220       C  0.54528841  0.12484300  0.54966094    -0.10400
C1221       C  0.53577169  0.14787444  0.56263165    -0.00500
C1222       C  0.54353892  0.15367232  0.58902571    -0.05600
H1223       H  0.58485708  0.10010136  0.59965971     0.06800
H1224       H  0.52216720  0.16129481  0.55220486     0.10200
Br1225     Br  0.53805475  0.08750774  0.64001330    -0.05300
Br1226     Br  0.61298417  0.19094910  0.67771327    -0.02300
Br1227     Br  0.57987317  0.07791865  0.54525266     0.00600
Br1228     Br  0.53065938  0.18635788  0.60471750    -0.03800
C1229       C  0.69968939  0.13614812  0.71022005    -0.11200
C1230       C  0.72327367  0.15073262  0.71607901     0.04300
C1231       C  0.74157445  0.15640366  0.69564511    -0.11700
C1232       C  0.73671240  0.14804535  0.66920877     0.19100
C1233       C  0.71394289  0.13232071  0.66354163    -0.08800
C1234       C  0.69573303  0.12631166  0.68405311    -0.01700
H1235       H  0.75925997  0.16822947  0.70020543     0.05700
C1236       C  0.75497952  0.15752016  0.64791296     0.21100
H1237       H  0.67761140  0.11531242  0.67914739     0.10800
C1238       C  0.78026428  0.14550664  0.64512673    -0.15100
C1239       C  0.79985873  0.15694986  0.62862570     0.03800
C1240       C  0.79415722  0.18085036  0.61444549    -0.10400
C1241       C  0.76821048  0.19182180  0.61599077    -0.00500
C1242       C  0.74882143  0.18058307  0.63282711    -0.05600
H1243       H  0.78513208  0.12776492  0.65669590     0.06800
H1244       H  0.76356348  0.21033954  0.60561847     0.10200
Br1245     Br  0.70633973  0.11978461  0.62793151    -0.05300
Br1246     Br  0.73151696  0.16355537  0.75151769    -0.02300
Br1247     Br  0.83408004  0.13922737  0.62674452     0.00600
Br1248     Br  0.71519037  0.19898996  0.63672106    -0.03800
C1249       C  0.09866978  0.67863970  0.43042692    -0.11200
C1250       C  0.08188309  0.65853731  0.41945968     0.04300
C1251       C  0.08085221  0.63330144  0.43134904    -0.11700
C1252       C  0.09515467  0.62769134  0.45493054     0.19100
C1253       C  0.11095773  0.64801734  0.46671220    -0.08800
C1254       C  0.11301697  0.67309291  0.45416106    -0.01700
H1255       H  0.06885667  0.61777702  0.42195793     0.05700
C1256       C  0.09385062  0.60018663  0.46607687     0.21100
H1257       H  0.12564274  0.68836557  0.46311267     0.10800
C1258       C  0.11747809  0.58486688  0.46810084    -0.15100
C1259       C  0.11679514  0.55847649  0.47759577     0.03800
C1260       C  0.09208231  0.54688041  0.48488404    -0.10400
C1261       C  0.06837971  0.56176185  0.48159553    -0.00500
C1262       C  0.06909115  0.58830665  0.47282528    -0.05600
H1263       H  0.13654094  0.59348996  0.46225962     0.06800
H1264       H  0.04919960  0.55282830  0.48643791     0.10200
Br1265     Br  0.12914906  0.64279553  0.50035461    -0.05300
Br1266     Br  0.06063064  0.66324655  0.38754439    -0.02300
Br1267     Br  0.15013573  0.53937975  0.48069812     0.00600
Br1268     Br  0.03576051  0.60772093  0.47174663    -0.03800
C1269       C  0.03306576  0.95244929  0.42685001    -0.11200
C1270       C  0.01829243  0.93577486  0.44415845     0.04300
C1271       C  0.02530534  0.90875032  0.44677084    -0.11700
C1272       C  0.04731394  0.89833745  0.43274526     0.19100
C1273       C  0.06355545  0.91563855  0.41746373    -0.08800
C1274       C  0.05643277  0.94256168  0.41476587    -0.01700
H1275       H  0.01303578  0.89564625  0.45894873     0.05700
C1276       C  0.05141003  0.86913744  0.43134717     0.21100
H1277       H  0.06790201  0.95527157  0.40142925     0.10800
C1278       C  0.03532384  0.85417632  0.41373269    -0.15100
C1279       C  0.04227717  0.82791750  0.40676944     0.03800
C1280       C  0.06598748  0.81641245  0.41743798    -0.10400
C1281       C  0.08028093  0.83060003  0.43738149    -0.00500
C1282       C  0.07315028  0.85674639  0.44434745    -0.05600
H1283       H  0.01807722  0.86347648  0.40425991     0.06800
H1284       H  0.09813334  0.82205143  0.44648546     0.10200
Br1285     Br  0.09396609  0.90282947  0.39758981    -0.05300
Br1286     Br  0.98808116  0.94893532  0.46390413    -0.02300
Br1287     Br  0.01882253  0.80943446  0.38233681     0.00600
Br1288     Br  0.09459234  0.87545178  0.47037274    -0.03800
C1289       C  0.17599858  0.80011132  0.35843046    -0.11200
C1290       C  0.20184456  0.78887080  0.35572262     0.04300
C1291       C  0.22191690  0.80318277  0.34251721    -0.11700
C1292       C  0.21686164  0.82864789  0.33165533     0.19100
C1293       C  0.19114213  0.84005130  0.33453917    -0.08800
C1294       C  0.17100869  0.82580616  0.34792083    -0.01700
H1295       H  0.24140686  0.79389850  0.33974726     0.05700
C1296       C  0.23837747  0.84150813  0.31574394     0.21100
H1297       H  0.15116197  0.83459223  0.34957206     0.10800
C1298       C  0.23486412  0.84493266  0.28794259    -0.15100
C1299       C  0.25664590  0.85148537  0.27143377     0.03800
C1300       C  0.28255332  0.85399451  0.28273478    -0.10400
C1301       C  0.28563311  0.85219199  0.31069968    -0.00500
C1302       C  0.26379052  0.84643685  0.32720409    -0.05600
H1303       H  0.21545320  0.84101003  0.27884611     0.06800
H1304       H  0.30534147  0.85449786  0.31971739     0.10200
Br1305     Br  0.18244793  0.87472188  0.32033328    -0.05300
Br1306     Br  0.21023375  0.75287735  0.36652593    -0.02300
Br1307     Br  0.25033538  0.85378475  0.23348390     0.00600
Br1308     Br  0.26977315  0.84479017  0.36526588    -0.03800
C1309       C  0.12010990  0.70444577  0.30928777    -0.11200
C1310       C  0.10349341  0.68322311  0.30056126     0.04300
C1311       C  0.11313300  0.66486168  0.28145261    -0.11700
C1312       C  0.13902735  0.66761184  0.27073618     0.19100
C1313       C  0.15467214  0.68991914  0.27792817    -0.08800
C1314       C  0.14525005  0.70795993  0.29707980    -0.01700
H1315       H  0.10083535  0.64790490  0.27568780     0.05700
C1316       C  0.15046556  0.64680269  0.25300225     0.21100
H1317       H  0.15818867  0.72429183  0.30330568     0.10800
C1318       C  0.14700187  0.64911625  0.22524450    -0.15100
C1319       C  0.16223704  0.63352901  0.20758185     0.03800
C1320       C  0.18178849  0.61542067  0.21774308    -0.10400
C1321       C  0.18354520  0.61162205  0.24565181    -0.00500
C1322       C  0.16806155  0.62715454  0.26323503    -0.05600
H1323       H  0.13323977  0.66397861  0.21726523     0.06800
H1324       H  0.19802598  0.59762891  0.25391464     0.10200
Br1325     Br  0.18974763  0.69575486  0.26313122    -0.05300
Br1326     Br  0.06870856  0.67698348  0.31559130    -0.02300
Br1327     Br  0.15523636  0.63838115  0.16989983     0.00600
Br1328     Br  0.17280980  0.62229573  0.30116074    -0.03800
C1329       C  0.17418033  0.77728526  0.64944124    -0.11200
C1330       C  0.19482902  0.77584814  0.63001602     0.04300
C1331       C  0.21955417  0.78835768  0.63508437    -0.11700
C1332       C  0.22404247  0.80213964  0.65921959     0.19100
C1333       C  0.20344300  0.80395611  0.67825762    -0.08800
C1334       C  0.17883847  0.79188428  0.67318264    -0.01700
H1335       H  0.23551217  0.78691368  0.62042400     0.05700
C1336       C  0.25061361  0.81333191  0.66551450     0.21100
H1337       H  0.16353820  0.79332040  0.68851950     0.10800
C1338       C  0.25367839  0.84120829  0.66658094    -0.15100
C1339       C  0.27653085  0.85266092  0.67821812     0.03800
C1340       C  0.29683444  0.83593920  0.68889972    -0.10400
C1341       C  0.29439854  0.80799182  0.68603842    -0.00500
C1342       C  0.27145962  0.79664560  0.67462929    -0.05600
H1343       H  0.23759187  0.85408041  0.65951348     0.06800
H1344       H  0.30978311  0.79474824  0.69391764     0.10200
Br1345     Br  0.20849156  0.82111580  0.71245906    -0.05300
Br1346     Br  0.19107685  0.75716441  0.59651804    -0.02300
Br1347     Br  0.27837567  0.89106180  0.67898587     0.00600
Br1348     Br  0.26838838  0.75830178  0.67424557    -0.03800
C1349       C  0.11909665  0.68602883  0.71596366    -0.11200
C1350       C  0.12446278  0.69662390  0.74165894     0.04300
C1351       C  0.13739588  0.68072174  0.76091359    -0.11700
C1352       C  0.14491331  0.65423458  0.75507704     0.19100
C1353       C  0.13778513  0.64305842  0.73012643    -0.08800
C1354       C  0.12538599  0.65907996  0.71067042    -0.01700
H1355       H  0.14259674  0.68940066  0.78018901     0.05700
C1356       C  0.16132530  0.63933999  0.77489359     0.21100
H1357       H  0.12103855  0.65057242  0.69111106     0.10800
C1358       C  0.15052027  0.63402028  0.80027769    -0.15100
C1359       C  0.16668127  0.62385264  0.82091764     0.03800
C1360       C  0.19404762  0.61832349  0.81609950    -0.10400
C1361       C  0.20442277  0.62202340  0.79025821    -0.00500
C1362       C  0.18850979  0.63307099  0.76986996    -0.05600
H1363       H  0.12971523  0.63890838  0.80436515     0.06800
H1364       H  0.22559415  0.61860254  0.78655510     0.10200
Br1365     Br  0.14455725  0.60611162  0.72181353    -0.05300
Br1366     Br  0.11717848  0.73328079  0.75071909    -0.02300
Br1367     Br  0.15064101  0.61884183  0.85556741     0.00600
Br1368     Br  0.20592103  0.64262518  0.73690273    -0.03800
C1369       C  0.07720808  0.54061575  0.54153506    -0.11200
C1370       C  0.09851978  0.55355400  0.55489186     0.04300
C1371       C  0.09418334  0.57829625  0.56730326    -0.11700
C1372       C  0.06876254  0.59045021  0.56663329     0.19100
C1373       C  0.04716398  0.57699902  0.55432007    -0.08800
C1374       C  0.05141368  0.55200681  0.54224728    -0.01700
H1375       H  0.11086751  0.58845394  0.57693355     0.05700
C1376       C  0.06599398  0.61785338  0.57746367     0.21100
H1377       H  0.03486431  0.54208710  0.53216730     0.10800
C1378       C  0.07560012  0.63935710  0.56220887    -0.15100
C1379       C  0.07749509  0.66506522  0.57323892     0.03800
C1380       C  0.07011321  0.66940315  0.60023862    -0.10400
C1381       C  0.05848696  0.64821847  0.61472731    -0.00500
C1382       C  0.05639261  0.62258758  0.60354298    -0.05600
H1383       H  0.08232765  0.63592723  0.54183946     0.06800
H1384       H  0.05243393  0.65114536  0.63539050     0.10200
Br1385     Br  0.01212104  0.59282080  0.55202507    -0.05300
Br1386     Br  0.13395408  0.53844940  0.55612903    -0.02300
Br1387     Br  0.09002165  0.69331440  0.55034976     0.00600
Br1388     Br  0.04186442  0.59436563  0.62515372    -0.03800
C1389       C  0.00792741  0.93829287  0.59237977    -0.11200
C1390       C  0.02510112  0.92262055  0.57640273     0.04300
C1391       C  0.03425198  0.89783190  0.58585463    -0.11700
C1392       C  0.02641825  0.88817559  0.61112932     0.19100
C1393       C  0.01037249  0.90458432  0.62769425    -0.08800
C1394       C  0.00117519  0.92936857  0.61817131    -0.01700
H1395       H  0.04716891  0.88577699  0.57321358     0.05700
C1396       C  0.03485495  0.86085442  0.61950633     0.21100
H1397       H  0.98813723  0.94144061  0.63066458     0.10800
C1398       C  0.05196348  0.85764018  0.64176684    -0.15100
C1399       C  0.06133346  0.83222552  0.64928410     0.03800
C1400       C  0.05321816  0.80938163  0.63465830    -0.10400
C1401       C  0.03616692  0.81260312  0.61243940    -0.00500
C1402       C  0.02710335  0.83798241  0.60471610    -0.05600
H1403       H  0.05882980  0.87509266  0.65274846     0.06800
H1404       H  0.03037494  0.79530840  0.60061047     0.10200
Br1405     Br  0.99939886  0.89363830  0.66290729    -0.05300
Br1406     Br  0.03613689  0.93406423  0.54138556    -0.02300
Br1407     Br  0.08776223  0.83030480  0.67743121     0.00600
Br1408     Br  0.00477696  0.84010755  0.57333139    -0.03800
C1409       C  0.90056651  0.80601808  0.57240971    -0.11200
C1410       C  0.89717235  0.82000367  0.54794833     0.04300
C1411       C  0.90888331  0.84533790  0.54470398    -0.11700
C1412       C  0.92432575  0.85686584  0.56533744     0.19100
C1413       C  0.92903471  0.84209650  0.58900749    -0.08800
C1414       C  0.91736442  0.81696936  0.59224909    -0.01700
H1415       H  0.90534411  0.85637154  0.52630214     0.05700
C1416       C  0.93397575  0.88482658  0.56296517     0.21100
H1417       H  0.92037222  0.80659272  0.61112386     0.10800
C1418       C  0.92533373  0.90364288  0.58203202    -0.15100
C1419       C  0.93669583  0.92913784  0.58321377     0.03800
C1420       C  0.95620451  0.93665236  0.56433335    -0.10400
C1421       C  0.96348640  0.91860948  0.54402800    -0.00500
C1422       C  0.95273686  0.89269848  0.54334972    -0.05600
H1423       H  0.91064435  0.89796192  0.59697575     0.06800
H1424       H  0.97833155  0.92433957  0.52930475     0.10200
Br1425     Br  0.95051403  0.85551244  0.61816370    -0.05300
Br1426     Br  0.87735478  0.80548217  0.51816796    -0.02300
Br1427     Br  0.92657887  0.95212198  0.61234116     0.00600
Br1428     Br  0.96584138  0.86842748  0.51653912    -0.03800
C1429       C  0.84424353  0.67276168  0.55199653    -0.11200
C1430       C  0.86423517  0.66370615  0.53413164     0.04300
C1431       C  0.86358678  0.63728144  0.52484887    -0.11700
C1432       C  0.84341033  0.61960009  0.53319198     0.19100
C1433       C  0.82372659  0.62845266  0.55123330    -0.08800
C1434       C  0.82394249  0.65499036  0.56007412    -0.01700
H1435       H  0.87910320  0.63034157  0.51130319     0.05700
C1436       C  0.84444804  0.59156856  0.52411355     0.21100
H1437       H  0.80906425  0.66129748  0.57459474     0.10800
C1438       C  0.86444052  0.57481267  0.53471091    -0.15100
C1439       C  0.86790655  0.54890531  0.52481401     0.03800
C1440       C  0.85204146  0.54002128  0.50316700    -0.10400
C1441       C  0.83088793  0.55607878  0.49373607    -0.00500
C1442       C  0.82674095  0.58166353  0.50434000    -0.05600
H1443       H  0.87759929  0.58207380  0.55049073     0.06800
H1444       H  0.81825165  0.54906292  0.47743230     0.10200
Br1445     Br  0.79791936  0.60431505  0.56631259    -0.05300
Br1446     Br  0.89274123  0.68631313  0.52159540    -0.02300
Br1447     Br  0.89488403  0.52661393  0.54100986     0.00600
Br1448     Br  0.79734392  0.60251671  0.49059817    -0.03800
C1449       C  0.69133966  0.86146590  0.71193049    -0.11200
C1450       C  0.71102180  0.84377138  0.72198130     0.04300
C1451       C  0.73214401  0.83568272  0.70555536    -0.11700
C1452       C  0.73410301  0.84510556  0.67913222     0.19100
C1453       C  0.71587316  0.86467102  0.66992309    -0.08800
C1454       C  0.69468125  0.87287195  0.68643743    -0.01700
H1455       H  0.74629608  0.82087917  0.71295027     0.05700
C1456       C  0.75334796  0.83181508  0.66099646     0.21100
H1457       H  0.67975018  0.88662245  0.67859795     0.10800
C1458       C  0.74349658  0.81468284  0.64087868    -0.15100
C1459       C  0.76080862  0.79781429  0.62653939     0.03800
C1460       C  0.78860792  0.79790966  0.63250720    -0.10400
C1461       C  0.79839686  0.81627023  0.65165975    -0.00500
C1462       C  0.78109969  0.83298217  0.66588588    -0.05600
H1463       H  0.72205104  0.81351156  0.63721670     0.06800
H1464       H  0.81967637  0.81721231  0.65622333     0.10200
Br1465     Br  0.71854824  0.87968681  0.63462582    -0.05300
Br1466     Br  0.70925514  0.82923572  0.75764731    -0.02300
Br1467     Br  0.74470425  0.77406393  0.60079073     0.00600
Br1468     Br  0.79625883  0.85653670  0.69235318    -0.03800
C1469       C  0.90030994  0.67723117  0.40166211    -0.11200
C1470       C  0.91877621  0.65635015  0.39610523     0.04300
C1471       C  0.91510852  0.63098864  0.40756748    -0.11700
C1472       C  0.89347273  0.62590903  0.42476168     0.19100
C1473       C  0.87636254  0.64725288  0.43189251    -0.08800
C1474       C  0.87960788  0.67244977  0.42008171    -0.01700
H1475       H  0.92866840  0.61485005  0.40225654     0.05700
C1476       C  0.88868528  0.59809176  0.43419980     0.21100
H1477       H  0.86556108  0.68829239  0.42500442     0.10800
C1478       C  0.90791782  0.58546190  0.45057104    -0.15100
C1479       C  0.90409873  0.55914018  0.45955828     0.03800
C1480       C  0.88062806  0.54506983  0.45238540    -0.10400
C1481       C  0.86182564  0.55734313  0.43531001    -0.00500
C1482       C  0.86578329  0.58351356  0.42600527    -0.05600
H1483       H  0.92592938  0.59616585  0.45644549     0.06800
H1484       H  0.84387260  0.54656715  0.42938847     0.10200
Br1485     Br  0.84828959  0.64316464  0.45766814    -0.05300
Br1486     Br  0.94804526  0.66011290  0.37135223    -0.02300
Br1487     Br  0.93158342  0.54311502  0.48128439     0.00600
Br1488     Br  0.83991796  0.59799228  0.40123715    -0.03800
C1489       C  0.94382843  0.82020206  0.36139422    -0.11200
C1490       C  0.95003578  0.83710242  0.33949320     0.04300
C1491       C  0.95931493  0.86314505  0.34421961    -0.11700
C1492       C  0.96275809  0.87282627  0.37043145     0.19100
C1493       C  0.95688680  0.85592714  0.39227458    -0.08800
C1494       C  0.94748631  0.82996586  0.38762106    -0.01700
H1495       H  0.96334381  0.87616111  0.32731210     0.05700
C1496       C  0.97174377  0.90078012  0.37465403     0.21100
H1497       H  0.94276343  0.81740086  0.40468419     0.10800
C1498       C  0.95450026  0.91899611  0.38747553    -0.15100
C1499       C  0.96309239  0.94493257  0.39373218     0.03800
C1500       C  0.98941329  0.95288293  0.38729271    -0.10400
C1501       C  0.00586864  0.93538966  0.37261210    -0.00500
C1502       C  0.99731984  0.90947284  0.36635700    -0.05600
H1503       H  0.93447531  0.91277698  0.39318355     0.06800
H1504       H  0.02585916  0.94162611  0.36683634     0.10200
Br1505     Br  0.96152389  0.86716430  0.42889067    -0.05300
Br1506     Br  0.94425162  0.82702397  0.30270795    -0.02300
Br1507     Br  0.93858630  0.96825468  0.41205200     0.00600
Br1508     Br  0.02195700  0.88638974  0.34785450    -0.03800
C1509       C  0.82015667  0.77914501  0.32788228    -0.11200
C1510       C  0.80133941  0.79168892  0.34504803     0.04300
C1511       C  0.77709226  0.80153787  0.33438234    -0.11700
C1512       C  0.77115721  0.79895011  0.30692050     0.19100
C1513       C  0.78983289  0.78657707  0.28991365    -0.08800
C1514       C  0.81397873  0.77703823  0.30034283    -0.01700
H1515       H  0.76258956  0.81085343  0.34760665     0.05700
C1516       C  0.74468807  0.80723119  0.29631603     0.21100
H1517       H  0.82780360  0.76738699  0.28664703     0.10800
C1518       C  0.74275921  0.82954154  0.27929828    -0.15100
C1519       C  0.71871837  0.83550188  0.26577675     0.03800
C1520       C  0.69596171  0.81895131  0.26944327    -0.10400
C1521       C  0.69793142  0.79716715  0.28730902    -0.00500
C1522       C  0.72197742  0.79116214  0.30049639    -0.05600
H1523       H  0.76037697  0.84173137  0.27570490     0.06800
H1524       H  0.68084163  0.78417375  0.29057941     0.10200
Br1525     Br  0.78266239  0.78070753  0.25245809    -0.05300
Br1526     Br  0.80711411  0.79607917  0.38291637    -0.02300
Br1527     Br  0.71928287  0.86519029  0.24129606     0.00600
Br1528     Br  0.72346845  0.75952193  0.32235236    -0.03800
C1529       C  0.69193176  0.43214879  0.09574047    -0.11200
C1530       C  0.67536873  0.43540209  0.07279897     0.04300
C1531       C  0.64868010  0.44400662  0.07565181    -0.11700
C1532       C  0.63782814  0.44919188  0.10107852     0.19100
C1533       C  0.65445846  0.44632549  0.12392318    -0.08800
C1534       C  0.68123220  0.43833534  0.12105262    -0.01700
H1535       H  0.63607200  0.44586530  0.05796737     0.05700
C1536       C  0.60883325  0.45578697  0.10376830     0.21100
H1537       H  0.69336272  0.43565677  0.13896347     0.10800
C1538       C  0.59231080  0.43825179  0.11825299    -0.15100
C1539       C  0.56577438  0.44506099  0.12428170     0.03800
C1540       C  0.55523110  0.46978911  0.11567113    -0.10400
C1541       C  0.57084235  0.48615569  0.09896556    -0.00500
C1542       C  0.59748664  0.47939660  0.09296688    -0.05600
H1543       H  0.60044263  0.41953940  0.12575054     0.06800
H1544       H  0.56261227  0.50482081  0.09148341     0.10200
Br1545     Br  0.64152862  0.45207336  0.15975071    -0.05300
Br1546     Br  0.68774025  0.42845882  0.03702964    -0.02300
Br1547     Br  0.54536484  0.42049013  0.14553958     0.00600
Br1548     Br  0.61764817  0.50382335  0.07118481    -0.03800
C1549       C  0.96568027  0.41563694  0.99221332    -0.11200
C1550       C  0.95503581  0.43184892  0.01272898     0.04300
C1551       C  0.92879733  0.42744713  0.02181166    -0.11700
C1552       C  0.91267681  0.40728956  0.01040579     0.19100
C1553       C  0.92306762  0.39173168  0.98922711    -0.08800
C1554       C  0.94952705  0.39557652  0.98077203    -0.01700
H1555       H  0.92084364  0.43993703  0.03771130     0.05700
C1556       C  0.88506905  0.40314350  0.02074994     0.21100
H1557       H  0.95734183  0.38331748  0.96463601     0.10800
C1558       C  0.86609172  0.42383522  0.01831726    -0.15100
C1559       C  0.84048048  0.42154621  0.02971127     0.03800
C1560       C  0.83320230  0.39784660  0.04326299    -0.10400
C1561       C  0.85196241  0.37680976  0.04487738    -0.00500
C1562       C  0.87782457  0.37946390  0.03428398    -0.05600
H1563       H  0.87139027  0.44201093  0.00778736     0.06800
H1564       H  0.84702960  0.35873527  0.05582877     0.10200
Br1565     Br  0.90146709  0.36627517  0.96998732    -0.05300
Br1566     Br  0.97503761  0.46110958  0.02776286    -0.02300
Br1567     Br  0.81630345  0.45124652  0.02584207     0.00600
Br1568     Br  0.90316655  0.35116157  0.04101147    -0.03800
C1569       C  0.72481075  0.31251081  0.11607646    -0.11200
C1570       C  0.69853966  0.30738145  0.10678811     0.04300
C1571       C  0.68410674  0.28570852  0.11723608    -0.11700
C1572       C  0.69552617  0.26911799  0.13695691     0.19100
C1573       C  0.72201619  0.27390260  0.14573231    -0.08800
C1574       C  0.73634351  0.29555131  0.13539457    -0.01700
H1575       H  0.66366421  0.28223035  0.11055475     0.05700
C1576       C  0.67944887  0.24747767  0.14907996     0.21100
H1577       H  0.75640127  0.29954933  0.14293851     0.10800
C1578       C  0.68575527  0.22085232  0.14299908    -0.15100
C1579       C  0.67359303  0.19976124  0.15677708     0.03800
C1580       C  0.65467764  0.20524361  0.17725817    -0.10400
C1581       C  0.64711169  0.23195211  0.18199749    -0.00500
C1582       C  0.65944282  0.25301109  0.16819685    -0.05600
H1583       H  0.70085346  0.21650325  0.12799248     0.06800
H1584       H  0.63259982  0.23660188  0.19746918     0.10200
Br1585     Br  0.73890656  0.25239833  0.17296381    -0.05300
Br1586     Br  0.68055520  0.33094494  0.08214573    -0.02300
Br1587     Br  0.68386690  0.16412984  0.14630448     0.00600
Br1588     Br  0.64992052  0.28904903  0.17762251    -0.03800
C1589       C  0.87579567  0.29301799  0.26641097    -0.11200
C1590       C  0.85259039  0.28810777  0.25078212     0.04300
C1591       C  0.84489841  0.30636352  0.23101757    -0.11700
C1592       C  0.85984107  0.32964670  0.22648495     0.19100
C1593       C  0.88351469  0.33419312  0.24127910    -0.08800
C1594       C  0.89150237  0.31574575  0.26096133    -0.01700
H1595       H  0.82689868  0.30257355  0.21929885     0.05700
C1596       C  0.84974591  0.34869072  0.20623562     0.21100
H1597       H  0.90924371  0.31987597  0.27293301     0.10800
C1598       C  0.82742135  0.36467304  0.21248703    -0.15100
C1599       C  0.81295786  0.37789071  0.19226304     0.03800
C1600       C  0.82099174  0.37510126  0.16524537    -0.10400
C1601       C  0.84477189  0.36095457  0.15951608    -0.00500
C1602       C  0.85894855  0.34757806  0.17967284    -0.05600
H1603       H  0.82014522  0.36534733  0.23295132     0.06800
H1604       H  0.85133577  0.35864651  0.13892486     0.10200
Br1605     Br  0.90447517  0.36596591  0.23624333    -0.05300
Br1606     Br  0.83069633  0.25671974  0.25513035    -0.02300
Br1607     Br  0.78066692  0.39616388  0.20262235     0.00600
Br1608     Br  0.88876773  0.32543085  0.16950156    -0.03800
C1609       C  0.82750136  0.60823966  0.19305554    -0.11200
C1610       C  0.85283148  0.61767114  0.18452016     0.04300
C1611       C  0.86973453  0.63084645  0.20268911    -0.21300
C1612       C  0.86180752  0.63515121  0.22930113     0.19100
C1613       C  0.83696427  0.62490389  0.23809635    -0.08800
C1614       C  0.82031135  0.61113781  0.22011801    -0.01700
H1615       H  0.88869536  0.63884795  0.19572666     0.05700
C1616       C  0.87746435  0.65400936  0.24604495     0.21100
H1617       H  0.80080883  0.60437416  0.22690080     0.10800
C1618       C  0.87773672  0.68104440  0.23855604    -0.15100
C1619       C  0.88879061  0.70049910  0.25541763     0.03800
C1620       C  0.89967853  0.69298843  0.28057424    -0.10400
C1621       C  0.90168351  0.66554505  0.28683579    -0.00500
C1622       C  0.89072533  0.64607819  0.26974623    -0.05600
H1623       H  0.86824405  0.68720456  0.21992994     0.06800
H1624       H  0.91022248  0.65924729  0.30585729     0.10200
Br1625     Br  0.82327198  0.63202053  0.27337435    -0.05300
Br1626     Br  0.86543542  0.61370971  0.14831779    -0.02300
Br1627     Br  0.88757916  0.73690842  0.24297525     0.00600
Br1628     Br  0.89353178  0.60910919  0.27991177    -0.03800
C1629       C  0.72073027  0.65731423  0.13073243    -0.11200
C1630       C  0.72673118  0.67944353  0.14738146     0.04300
C1631       C  0.70767446  0.69964069  0.15095259    -0.11700
C1632       C  0.68248577  0.69820884  0.13840581     0.19100
C1633       C  0.67695796  0.67705189  0.12060208    -0.08800
C1634       C  0.69616130  0.65687164  0.11668855    -0.01700
H1635       H  0.71215019  0.71612739  0.16441074     0.05700
C1636       C  0.66213449  0.71831306  0.14596953     0.21100
H1637       H  0.69119356  0.63999210  0.10393104     0.10800
C1638       C  0.66389261  0.74411447  0.13517594    -0.15100
C1639       C  0.65024585  0.76552142  0.14707364     0.03800
C1640       C  0.63500042  0.76124847  0.17059687    -0.10400
C1641       C  0.63096788  0.73488946  0.17953052    -0.00500
C1642       C  0.64450250  0.71348005  0.16744821    -0.05600
H1643       H  0.67712915  0.74787198  0.11838058     0.06800
H1644       H  0.61913118  0.73113517  0.19733485     0.10200
Br1645     Br  0.64302787  0.67429928  0.10250070    -0.05300
Br1646     Br  0.76038349  0.68320904  0.16609023    -0.02300
Br1647     Br  0.65398262  0.80015745  0.13072162     0.00600
Br1648     Br  0.64073899  0.67845806  0.18281413    -0.03800
C1649       C  0.69377918  0.53829410  0.15404185    -0.11200
C1650       C  0.67940239  0.52345092  0.13459622     0.04300
C1651       C  0.65209489  0.51840039  0.13834276    -0.11700
C1652       C  0.63849967  0.52803937  0.16094484     0.19100
C1653       C  0.65318383  0.54082101  0.18140391    -0.08800
C1654       C  0.68066298  0.54571326  0.17792134    -0.01700
H1655       H  0.64111676  0.50753867  0.12313063     0.05700
C1656       C  0.60887561  0.52556699  0.16165242     0.21100
H1657       H  0.69130435  0.55703658  0.19316371     0.10800
C1658       C  0.59691242  0.50645187  0.17836565    -0.15100
C1659       C  0.56971362  0.49991608  0.17529089     0.03800
C1660       C  0.55412953  0.51269738  0.15538854    -0.10400
C1661       C  0.56543393  0.53372058  0.14061851    -0.00500
C1662       C  0.59269753  0.53999066  0.14338010    -0.05600
H1663       H  0.60908183  0.49551500  0.19273331     0.06800
H1664       H  0.55360556  0.54371446  0.12529586     0.10200
Br1665     Br  0.63617757  0.55390520  0.21327661    -0.05300
Br1666     Br  0.69543645  0.50999000  0.10224830    -0.02300
Br1667     Br  0.55508952  0.47213759  0.19732000     0.00600
Br1668     Br  0.60745813  0.56708399  0.12044161    -0.03800
C1669       C  0.82507747  0.54873334  0.08269954    -0.11200
C1670       C  0.83177820  0.55976946  0.05742523     0.04300
C1671       C  0.85713923  0.55482644  0.04644505    -0.11700
C1672       C  0.87577937  0.53863305  0.05995077     0.19100
C1673       C  0.86816152  0.52530645  0.08347986    -0.08800
C1674       C  0.84298330  0.53035007  0.09465666    -0.01700
H1675       H  0.86282398  0.56465482  0.02792483     0.05700
C1676       C  0.90397534  0.53881429  0.05124210     0.21100
H1677       H  0.83819480  0.52109056  0.11370020     0.10800
C1678       C  0.92178326  0.55641939  0.06405554    -0.15100
C1679       C  0.94819868  0.55895215  0.05521058     0.03800
C1680       C  0.95719872  0.54338928  0.03346874    -0.10400
C1681       C  0.93950296  0.52533399  0.02095430    -0.00500
C1682       C  0.91292663  0.52307023  0.02970051    -0.05600
H1683       H  0.91480157  0.56888775  0.08042850     0.06800
H1684       H  0.94615307  0.51364327  0.00389443     0.10200
Br1685     Br  0.89220744  0.50131373  0.10172631    -0.05300
Br1686     Br  0.80790315  0.58222207  0.03708816    -0.02300
Br1687     Br  0.97047660  0.58571655  0.07172842     0.00600
Br1688     Br  0.88916559  0.49891086  0.01163374    -0.03800
C1689       C  0.84130743  0.61019251  0.91781889    -0.11200
C1690       C  0.84034897  0.59913657  0.94369885     0.04300
C1691       C  0.86416236  0.59116170  0.95640891    -0.11700
C1692       C  0.88902778  0.59437597  0.94358203     0.19100
C1693       C  0.88989553  0.60535702  0.91757030    -0.08800
C1694       C  0.86605342  0.61302088  0.90482549    -0.01700
H1695       H  0.86333145  0.58251605  0.97633662     0.05700
C1696       C  0.91393351  0.58651605  0.95763173     0.21100
H1697       H  0.86683564  0.62149015  0.88482635     0.10800
C1698       C  0.92916362  0.56501524  0.94771323    -0.15100
C1699       C  0.95337426  0.55778198  0.96000541     0.03800
C1700       C  0.96228389  0.57182989  0.98279731    -0.10400
C1701       C  0.94711965  0.59329252  0.99274433    -0.00500
C1702       C  0.92307512  0.60075104  0.98030060    -0.05600
H1703       H  0.92224707  0.55397435  0.93027870     0.06800
H1704       H  0.95395447  0.60411799  0.01034247     0.10200
Br1705     Br  0.92321152  0.61123133  0.89916971    -0.05300
Br1706     Br  0.80686534  0.59403327  0.96182729    -0.02300
Br1707     Br  0.97351052  0.52839840  0.94547843     0.00600
Br1708     Br  0.90387994  0.63095139  0.99444539    -0.03800
C1709       C  0.69902803  0.58874691  0.88204353    -0.11200
C1710       C  0.68103519  0.59594010  0.90276523     0.04300
C1711       C  0.65486536  0.58577859  0.90272213    -0.11700
C1712       C  0.64634526  0.56750573  0.88309962     0.19100
C1713       C  0.66471186  0.55935666  0.86317453    -0.08800
C1714       C  0.69057747  0.57023578  0.86257267    -0.01700
H1715       H  0.64092617  0.59246234  0.91797928     0.05700
C1716       C  0.61807984  0.55795416  0.88321354     0.21100
H1717       H  0.70414411  0.56423358  0.84670275     0.10800
C1718       C  0.60160129  0.56308337  0.86081123    -0.15100
C1719       C  0.57529115  0.55330919  0.85959004     0.03800
C1720       C  0.56509959  0.53799692  0.88092001    -0.10400
C1721       C  0.58094521  0.53405482  0.90391178    -0.00500
C1722       C  0.60714501  0.54414209  0.90536381    -0.05600
H1723       H  0.60939075  0.57442171  0.84402506     0.06800
H1724       H  0.57316985  0.52237750  0.92045920     0.10200
Br1725     Br  0.65591545  0.53306934  0.83657174    -0.05300
Br1726     Br  0.69003236  0.62049903  0.93107679    -0.02300
Br1727     Br  0.55426702  0.56034598  0.82800685     0.00600
Br1728     Br  0.62730603  0.53742221  0.93762064    -0.03800
C1729       C  0.64096665  0.80143861  0.80370768    -0.11200
C1730       C  0.65021793  0.80846482  0.82963864     0.04300
C1731       C  0.66680826  0.79086224  0.84390177    -0.11700
C1732       C  0.67427051  0.76625691  0.83275209     0.19100
C1733       C  0.66349494  0.75837522  0.80778614    -0.08800
C1734       C  0.64691202  0.77594083  0.79347143    -0.01700
H1735       H  0.67457912  0.79671612  0.86338873     0.05700
C1736       C  0.69432193  0.74953247  0.84667262     0.21100
H1737       H  0.63996156  0.77023771  0.77363642     0.10800
C1738       C  0.68631231  0.73308231  0.86791880    -0.15100
C1739       C  0.70395711  0.71400626  0.87870670     0.03800
C1740       C  0.73012208  0.71132241  0.86800603    -0.10400
C1741       C  0.73868434  0.72968201  0.84845136    -0.00500
C1742       C  0.72103647  0.74859480  0.83772216    -0.05600
H1743       H  0.66582212  0.73410039  0.87512268     0.06800
H1744       H  0.75874877  0.72823712  0.84020371     0.10200
Br1745     Br  0.67185923  0.72428874  0.79202485    -0.05300
Br1746     Br  0.64084604  0.84171945  0.84665153    -0.02300
Br1747     Br  0.68984215  0.69068324  0.90574322     0.00600
Br1748     Br  0.73378330  0.77147406  0.80957626    -0.03800
C1749       C  0.81177930  0.63976644  0.79506778    -0.11200
C1750       C  0.83963891  0.64475278  0.79327572     0.04300
C1751       C  0.85073744  0.65271348  0.76884333    -0.11700
C1752       C  0.83444905  0.65618971  0.74611623     0.19100
C1753       C  0.80695481  0.64951530  0.74744612    -0.08800
C1754       C  0.79591026  0.64112753  0.77177653    -0.01700
H1755       H  0.87198263  0.65729515  0.76781707     0.05700
C1756       C  0.84576776  0.66893002  0.72193046     0.21100
H1757       H  0.77449646  0.63741128  0.77285864     0.10800
C1758       C  0.84672683  0.65451206  0.69780101    -0.15100
C1759       C  0.85268149  0.66745005  0.67367936     0.03800
C1760       C  0.85806963  0.69517839  0.67362655    -0.10400
C1761       C  0.85975964  0.70895880  0.69808716    -0.00500
C1762       C  0.85344911  0.69612155  0.72216991    -0.05600
H1763       H  0.84153341  0.63344220  0.69756761     0.06800
H1764       H  0.86382279  0.73027868  0.69827222     0.10200
Br1765     Br  0.78305622  0.65405816  0.71741287    -0.05300
Br1766     Br  0.86354092  0.64128768  0.82345531    -0.02300
Br1767     Br  0.85262995  0.64653728  0.64130604     0.00600
Br1768     Br  0.85269320  0.71742755  0.75427507    -0.03800
C1769       C  0.72598421  0.31637341  0.85667984    -0.11200
C1770       C  0.69775275  0.31824044  0.85663363     0.04300
C1771       C  0.68222114  0.29552451  0.85141900    -0.11700
C1772       C  0.69450836  0.27083416  0.84608758     0.19100
C1773       C  0.72268286  0.26852443  0.84808834    -0.08800
C1774       C  0.73823253  0.29125944  0.85358876    -0.01700
H1775       H  0.66058655  0.29747314  0.84982786     0.05700
C1776       C  0.67834769  0.24943564  0.83353895     0.21100
H1777       H  0.75994510  0.28973190  0.85308433     0.10800
C1778       C  0.67128128  0.25232423  0.80641747    -0.15100
C1779       C  0.65848127  0.23164520  0.79250570     0.03800
C1780       C  0.65192496  0.20774901  0.80602739    -0.10400
C1781       C  0.65837239  0.20516143  0.83341285    -0.00500
C1782       C  0.67152128  0.22579308  0.84720955    -0.05600
H1783       H  0.67696569  0.27030844  0.79567773     0.06800
H1784       H  0.65377997  0.18674633  0.84393269     0.10200
Br1785     Br  0.74087783  0.23556747  0.84003295    -0.05300
Br1786     Br  0.67971487  0.35187280  0.86176754    -0.02300
Br1787     Br  0.65393010  0.23587115  0.75442113     0.00600
Br1788     Br  0.68057248  0.22052846  0.88428675    -0.03800
C1789       C  0.81401010  0.35540802  0.77304635    -0.11200
C1790       C  0.82880708  0.33112028  0.77466130     0.04300
C1791       C  0.83759481  0.31856101  0.75118464    -0.11700
C1792       C  0.83206889  0.32959549  0.72597288     0.19100
C1793       C  0.81850673  0.35423756  0.72424257    -0.08800
C1794       C  0.80980390  0.36704703  0.74763894    -0.01700
H1795       H  0.84800092  0.29952029  0.75253295     0.05700
C1796       C  0.83772444  0.31350939  0.70180507     0.21100
H1797       H  0.79869642  0.38563160  0.74577977     0.10800
C1798       C  0.81723248  0.29728628  0.69156010    -0.15100
C1799       C  0.82154480  0.28107150  0.66915790     0.03800
C1800       C  0.84687306  0.28117457  0.65626551    -0.10400
C1801       C  0.86758474  0.29712428  0.66695536    -0.00500
C1802       C  0.86316044  0.31318115  0.68963619    -0.05600
H1803       H  0.79781102  0.29699801  0.70132455     0.06800
H1804       H  0.88711862  0.29740243  0.65745377     0.10200
Br1805     Br  0.81033708  0.37035812  0.69023083    -0.05300
Br1806     Br  0.83733624  0.31311396  0.80774888    -0.02300
Br1807     Br  0.79233351  0.25809357  0.65858744     0.00600
Br1808     Br  0.89214151  0.33448531  0.70334483    -0.03800
C1809       C  0.56601996  0.48261881  0.86282631    -0.11200
C1810       C  0.57971037  0.46731243  0.88219918     0.04300
C1811       C  0.60554073  0.45775687  0.87674554    -0.11700
C1812       C  0.61823394  0.46359751  0.85225457     0.19100
C1813       C  0.60366831  0.47757941  0.83226326    -0.08800
C1814       C  0.57782263  0.48701239  0.83776564    -0.01700
H1815       H  0.61604415  0.44623414  0.89194357     0.05700
C1816       C  0.64659163  0.45514665  0.84827736     0.21100
H1817       H  0.56713897  0.49851509  0.82268034     0.10800
C1818       C  0.65314226  0.43818942  0.82679179    -0.15100
C1819       C  0.67942306  0.42885027  0.82324304     0.03800
C1820       C  0.69964038  0.43574474  0.84200389    -0.10400
C1821       C  0.69318146  0.45296977  0.86326240    -0.00500
C1822       C  0.66710083  0.46290428  0.86635023    -0.05600
H1823       H  0.63757186  0.43160676  0.81304639     0.06800
H1824       H  0.70846316  0.45846004  0.87780700     0.10200
Br1825     Br  0.61817835  0.48561344  0.79755269    -0.05300
Br1826     Br  0.56427465  0.45996234  0.91664259    -0.02300
Br1827     Br  0.68566608  0.40493635  0.79370146     0.00600
Br1828     Br  0.66088811  0.48709241  0.89561530    -0.03800
C1829       C  0.84117655  0.42249991  0.88505092    -0.11200
C1830       C  0.84817081  0.41753391  0.91217392     0.04300
C1831       C  0.87385066  0.42430719  0.92157037    -0.11700
C1832       C  0.89291560  0.43572865  0.90439321     0.19100
C1833       C  0.88559799  0.44203674  0.87791789    -0.08800
C1834       C  0.85987813  0.43569664  0.86854147    -0.01700
H1835       H  0.87937606  0.41962320  0.94210868     0.05700
C1836       C  0.92107734  0.43767950  0.91355317     0.21100
H1837       H  0.85504401  0.43990497  0.84774389     0.10800
C1838       C  0.93939622  0.41818520  0.90488635    -0.15100
C1839       C  0.96503123  0.41645073  0.91627978     0.03800
C1840       C  0.97245951  0.43426554  0.93696426    -0.10400
C1841       C  0.95478320  0.45497116  0.94424290    -0.00500
C1842       C  0.92925086  0.45683515  0.93256515    -0.05600
H1843       H  0.93323701  0.40344144  0.89012836     0.06800
H1844       H  0.96036197  0.46882935  0.96004604     0.10200
Br1845     Br  0.91053837  0.45831492  0.85364357    -0.05300
Br1846     Br  0.82410202  0.40136616  0.93743911    -0.02300
Br1847     Br  0.98784328  0.38756354  0.90502231     0.00600
Br1848     Br  0.90596688  0.48539535  0.94331091    -0.03800
loop_ 
_geom_bond_atom_site_label_1 
_geom_bond_atom_site_label_2 
_geom_bond_distance 
_geom_bond_site_symmetry_2 
_ccdc_geom_bond_type 
O1            C4   1.262       .  A
O1           Cd6   2.402       .  S
C2           O11   1.266       .  A
C2            O7   1.268       .  A
C2         C1829   1.486       .  S
O3            C9   1.269       .  A
O3           Cd6   2.483       .  S
C4           O12   1.270       .  A
C4         C1769   1.468       .  S
C5           O10   1.267       .  A
C5            O8   1.267       .  A
C5         C1820   1.478       .  S
Cd6          O13   2.420       .  S
Cd6          O12   2.507       .  S
Cd6          O11   2.447       .  S
Cd6           O7   2.482       .  S
Cd6          O10   2.466       .  S
Cd6           O8   2.450       .  S
C9           O13   1.262       .  A
C9         C1789   1.486       .  S
O14          C17   1.267       .  A
O14         Cd19   2.468       .  S
C15          O24   1.265       .  A
C15          O20   1.260       .  A
C15        C1740   1.479       .  S
O16          C22   1.271       .  A
O16         Cd19   2.468       .  S
C17          O25   1.263       .  A
C17        C1689   1.463       .  S
C18          O23   1.267       .  A
C18          O21   1.263       .  A
C18        C1709   1.480       .  S
Cd19         O26   2.403       .  S
Cd19         O25   2.435       .  S
Cd19         O24   2.508       .  S
Cd19         O20   2.420       .  S
Cd19         O23   2.465       .  S
Cd19         O21   2.445       .  S
C22          O26   1.265       .  A
C22        C1749   1.473       .  S
O27          C30   1.268       .  A
O27         Cd32   2.501       .  S
C28          O37   1.267       .  A
C28          O33   1.268       .  A
C28        C1669   1.484       .  S
O29          C35   1.271       .  A
O29         Cd32   2.471       .  S
C30          O38   1.261       .  A
C30        C1629   1.476       .  S
C31          O36   1.267       .  A
C31          O34   1.264       .  A
C31        C1649   1.480       .  S
Cd32         O39   2.419       .  S
Cd32         O38   2.417       .  S
Cd32         O37   2.438       .  S
Cd32         O33   2.463       .  S
Cd32         O36   2.471       .  S
Cd32         O34   2.442       .  S
C35          O39   1.265       .  A
C35        C1609   1.477       .  S
O40          C43   1.267       .  A
O40         Cd45   2.461       .  S
C41          O50   1.262       .  A
C41          O46   1.269       .  A
C41        C1569   1.470       .  S
O42          C48   1.272       .  A
O42         Cd45   2.504       .  S
C43          O51   1.268       .  A
C43        C1560   1.483       .  S
C44          O49   1.270       .  A
C44          O47   1.266       .  A
C44        C1529   1.487       .  S
Cd45         O52   2.386       .  S
Cd45         O51   2.480       .  S
Cd45         O50   2.416       .  S
Cd45         O46   2.491       .  S
Cd45         O49   2.479       .  S
Cd45         O47   2.462       .  S
C48          O52   1.263       .  A
C48        C1600   1.478       .  S
O53          C56   1.269       .  A
O53         Cd58   2.519       .  S
C54          O63   1.266       .  A
C54          O59   1.269       .  A
C54        C1469   1.483       .  S
O55          C61   1.266       .  A
O55         Cd58   2.490       .  S
C56          O64   1.261       .  A
C56        C1509   1.486       .  S
C57          O62   1.265       .  A
C57          O60   1.263       .  A
C57        C1489   1.481       .  S
Cd58         O65   2.430       .  S
Cd58         O64   2.388       .  S
Cd58         O63   2.455       .  S
Cd58         O59   2.464       .  S
Cd58         O62   2.483       .  S
Cd58         O60   2.450       .  S
C61          O65   1.262       .  A
C61        C1620   1.481       .  S
O66          C69   1.269       .  A
O66         Cd71   2.438       .  S
C67          O76   1.262       .  A
C67          O72   1.268       .  A
C67        C1760   1.470       .  S
O68          C74   1.269       .  A
O68         Cd71   2.504       .  S
C69          O77   1.266       .  A
C69        C1409   1.480       .  S
C70          O75   1.269       .  A
C70          O73   1.266       .  A
C70        C1429   1.473       .  S
Cd71         O78   2.399       .  S
Cd71         O77   2.452       .  S
Cd71         O76   2.418       .  S
Cd71         O72   2.489       .  S
Cd71         O75   2.441       .  S
Cd71         O73   2.433       .  S
C74          O78   1.263       .  A
C74        C1460   1.483       .  S
O79          C82   1.269       .  A
O79         Cd84   2.475       .  S
C80          O89   1.264       .  A
C80          O85   1.272       .  A
C80        C1349   1.475       .  S
O81          C87   1.269       .  A
O81         Cd84   2.434       .  S
C82          O90   1.265       .  A
C82        C1400   1.475       .  S
C83          O88   1.269       .  A
C83          O86   1.263       .  A
C83        C1329   1.481       .  S
Cd84         O91   2.444       .  S
Cd84         O90   2.433       .  S
Cd84         O89   2.410       .  S
Cd84         O85   2.492       .  S
Cd84         O88   2.491       .  S
Cd84         O86   2.381       .  S
C87          O91   1.269       .  A
C87        C1380   1.480       .  S
O92          C95   1.273       .  A
O92         Cd97   2.469       .  S
C93         O102   1.263       .  A
C93          O98   1.274       .  A
C93        C1309   1.480       .  S
O94         C100   1.273       .  A
O94         Cd97   2.455       .  S
C95         O103   1.267       .  A
C95        C1280   1.484       .  S
C96         O101   1.272       .  A
C96          O99   1.265       .  A
C96        C1249   1.481       .  S
Cd97        O104   2.416       .  S
Cd97        O103   2.407       .  S
Cd97        O102   2.385       .  S
Cd97         O98   2.525       .  S
Cd97        O101   2.484       .  S
Cd97         O99   2.406       .  S
C100        O104   1.267       .  A
C100       C1289   1.476       .  S
O105        C108   1.267       .  A
O105       Cd110   2.501       .  S
C106        O115   1.267       .  A
C106        O111   1.267       .  A
C106       C1200   1.490       .  S
O107        C113   1.271       .  A
O107       Cd110   2.460       .  S
C108        O116   1.260       .  A
C108       C1229   1.477       .  S
C109        O114   1.267       .  A
C109        O112   1.264       .  A
C109       C1209   1.476       .  S
Cd110       O117   2.418       .  S
Cd110       O116   2.440       .  S
Cd110       O115   2.467       .  S
Cd110       O111   2.457       .  S
Cd110       O114   2.470       .  S
Cd110       O112   2.442       .  S
C113        O117   1.266       .  A
C113       C1780   1.472       .  S
O118        C121   1.270       .  A
O118       Cd123   2.473       .  S
C119        O128   1.262       .  A
C119        O124   1.271       .  A
C119       C1449   1.468       .  S
O120        C126   1.273       .  A
O120       Cd123   2.478       .  S
C121        O129   1.266       .  A
C121       C1169   1.483       .  S
C122        O127   1.270       .  A
C122        O125   1.265       .  A
C122       C1149   1.481       .  S
Cd123       O130   2.392       .  S
Cd123       O129   2.434       .  S
Cd123       O128   2.388       .  S
Cd123       O124   2.502       .  S
Cd123       O127   2.495       .  S
Cd123       O125   2.422       .  S
C126        O130   1.264       .  A
C126       C1729   1.472       .  S
O131        C134   1.272       .  A
O131       Cd136   2.444       .  S
C132        O141   1.268       .  A
C132        O137   1.268       .  A
C132       C1089   1.477       .  S
O133        C139   1.274       .  A
O133       Cd136   2.508       .  S
C134        O142   1.267       .  A
C134       C1340   1.476       .  S
C135        O140   1.273       .  A
C135        O138   1.265       .  A
C135       C1109   1.474       .  S
Cd136       O143   2.371       .  S
Cd136       O142   2.400       .  S
Cd136       O141   2.462       .  S
Cd136       O137   2.453       .  S
Cd136       O140   2.470       .  S
Cd136       O138   2.423       .  S
C139        O143   1.263       .  A
C139       C1129   1.482       .  S
O144        C147   1.268       .  A
O144       Cd149   2.431       .  S
C145        O154   1.265       .  A
C145        O150   1.269       .  A
C145       C1020   1.472       .  S
O146        C152   1.271       .  A
O146       Cd149   2.502       .  S
C147        O155   1.265       .  A
C147       C1069   1.485       .  S
C148        O153   1.271       .  A
C148        O151   1.265       .  A
C148       C1049   1.481       .  S
Cd149       O156   2.402       .  S
Cd149       O155   2.464       .  S
Cd149       O154   2.434       .  S
Cd149       O150   2.469       .  S
Cd149       O153   2.482       .  S
Cd149       O151   2.415       .  S
C152        O156   1.262       .  A
C152       C1029   1.472       .  S
O157        C160   1.268       .  A
O157       Cd162   2.491       .  S
C158        O167   1.269       .  A
C158        O163   1.267       .  A
C158       C1000   1.489       .  S
O159        C165   1.271       .  A
O159       Cd162   2.500       .  S
C160        O168   1.264       .  A
C160       C1520   1.485       .  S
C161        O166   1.269       .  A
C161        O164   1.266       .  A
C161        C980   1.477       .  S
Cd162       O169   2.415       .  S
Cd162       O168   2.422       .  S
Cd162       O167   2.460       .  S
Cd162       O163   2.450       .  S
Cd162       O166   2.466       .  S
Cd162       O164   2.448       .  S
C165        O169   1.263       .  A
C165       C1640   1.480       .  S
O170        C173   1.269       .  A
O170       Cd175   2.471       .  S
C171        O180   1.270       .  A
C171        O176   1.263       .  A
C171        C949   1.472       .  S
O172        C178   1.271       .  A
O172       Cd175   2.501       .  S
C173        O181   1.266       .  A
C173        C929   1.482       .  S
C174        O179   1.269       .  A
C174        O177   1.267       .  A
C174        C920   1.479       .  S
Cd175       O182   2.411       .  S
Cd175       O181   2.438       .  S
Cd175       O180   2.488       .  S
Cd175       O176   2.418       .  S
Cd175       O179   2.470       .  S
Cd175       O177   2.434       .  S
C178        O182   1.262       .  A
C178       C1580   1.482       .  S
O183        C186   1.269       .  A
O183       Cd188   2.493       .  S
C184        O193   1.263       .  A
C184        O189   1.269       .  A
C184       C1300   1.476       .  S
O185        C191   1.268       .  A
O185       Cd188   2.482       .  S
C186        O194   1.263       .  A
C186        C849   1.493       .  S
C187        O192   1.268       .  A
C187        O190   1.266       .  A
C187        C869   1.482       .  S
Cd188       O195   2.404       .  S
Cd188       O194   2.465       .  S
Cd188       O193   2.422       .  S
Cd188       O189   2.505       .  S
Cd188       O192   2.477       .  S
Cd188       O190   2.455       .  S
C191        O195   1.262       .  A
C191        C900   1.469       .  S
O196        C199   1.273       .  A
O196       Cd201   2.492       .  S
C197        O206   1.266       .  A
C197        O202   1.271       .  A
C197        C809   1.493       .  S
O198        C204   1.271       .  A
O198       Cd201   2.477       .  S
C199        O207   1.263       .  A
C199        C789   1.472       .  S
C200        O205   1.270       .  A
C200        O203   1.269       .  A
C200        C840   1.478       .  S
Cd201       O208   2.386       .  S
Cd201       O207   2.404       .  S
Cd201       O206   2.435       .  S
Cd201       O202   2.491       .  S
Cd201       O205   2.448       .  S
Cd201       O203   2.442       .  S
C204        O208   1.262       .  A
C204        C769   1.471       .  S
O209        C212   1.269       .  A
O209       Cd214   2.445       .  S
C210        O219   1.264       .  A
C210        O215   1.270       .  A
C210       C1140   1.486       .  S
O211        C217   1.271       .  A
O211       Cd214   2.482       .  S
C212        O220   1.267       .  A
C212        C749   1.477       .  S
C213        O218   1.271       .  A
C213        O216   1.263       .  A
C213       C1360   1.471       .  S
Cd214       O221   2.407       .  S
Cd214       O220   2.442       .  S
Cd214       O219   2.402       .  S
Cd214       O215   2.492       .  S
Cd214       O218   2.489       .  S
Cd214       O216   2.405       .  S
C217        O221   1.266       .  A
C217        C740   1.479       .  S
O222        C225   1.272       .  A
O222       Cd227   2.473       .  S
C223        O232   1.265       .  A
C223        O228   1.273       .  A
C223       C1009   1.476       .  S
O224        C230   1.271       .  A
O224       Cd227   2.473       .  S
C225        O233   1.265       .  A
C225        C669   1.479       .  S
C226        O231   1.271       .  A
C226        O229   1.267       .  A
C226        C700   1.469       .  S
Cd227       O234   2.372       .  S
Cd227       O233   2.417       .  S
Cd227       O232   2.399       .  S
Cd227       O228   2.493       .  S
Cd227       O231   2.455       .  S
Cd227       O229   2.395       .  S
C230        O234   1.264       .  A
C230        C720   1.465       .  S
O235        C238   1.269       .  A
O235       Cd240   2.504       .  S
C236        O245   1.262       .  A
C236        O241   1.274       .  A
C236       C1320   1.486       .  S
O237        C243   1.267       .  A
O237       Cd240   2.493       .  S
C238        O246   1.263       .  A
C238        C640   1.487       .  S
C239        O244   1.266       .  A
C239        O242   1.268       .  A
C239        C649   1.486       .  S
Cd240       O247   2.399       .  S
Cd240       O246   2.443       .  S
Cd240       O245   2.402       .  S
Cd240       O241   2.515       .  S
Cd240       O244   2.447       .  S
Cd240       O242   2.452       .  S
C243        O247   1.262       .  A
C243        C889   1.461       .  S
O248        C251   1.271       .  A
O248       Cd253   2.490       .  S
C249        O258   1.266       .  A
C249        O254   1.268       .  A
C249        C609   1.478       .  S
O250        C256   1.268       .  A
O250       Cd253   2.488       .  S
C251        O259   1.262       .  A
C251        C780   1.472       .  S
C252        O257   1.266       .  A
C252        O255   1.267       .  A
C252        C600   1.487       .  S
Cd253       O260   2.419       .  S
Cd253       O259   2.379       .  S
Cd253       O258   2.419       .  S
Cd253       O254   2.470       .  S
Cd253       O257   2.445       .  S
Cd253       O255   2.459       .  S
C256        O260   1.265       .  A
C256        C569   1.483       .  S
O261        C264   1.270       .  A
O261       Cd266   2.491       .  S
C262        O271   1.261       .  A
C262        O267   1.273       .  A
C262       C1800   1.481       .  S
O263        C269   1.270       .  A
O263       Cd266   2.476       .  S
C264        O272   1.268       .  A
C264        C529   1.490       .  S
C265        O270   1.271       .  A
C265        O268   1.264       .  A
C265       C1240   1.481       .  S
Cd266       O273   2.445       .  S
Cd266       O272   2.436       .  S
Cd266       O271   2.400       .  S
Cd266       O267   2.510       .  S
Cd266       O270   2.485       .  S
Cd266       O268   2.430       .  S
C269        O273   1.267       .  A
C269        C549   1.478       .  S
O274        C277   1.268       .  A
O274       Cd279   2.454       .  S
C275        O284   1.263       .  A
C275        O280   1.268       .  A
C275        C709   1.462       .  S
O276        C282   1.263       .  A
O276       Cd279   2.387       .  S
C277        O285   1.266       .  A
C277        C520   1.474       .  S
C278        O283   1.272       .  A
C278        O281   1.262       .  A
C278        C489   1.486       .  S
Cd279       O286   2.496       .  S
Cd279       O285   2.430       .  S
Cd279       O284   2.400       .  S
Cd279       O280   2.479       .  S
Cd279       O283   2.494       .  S
Cd279       O281   2.395       .  S
C282        O286   1.273       .  A
C282       C1040   1.482       .  S
O287        C290   1.266       .  A
O287       Cd292   2.458       .  S
C288        O297   1.261       .  A
C288        O293   1.267       .  A
C288       C1589   1.474       .  S
O289        C295   1.269       .  A
O289       Cd292   2.479       .  S
C290        O298   1.266       .  A
C290        C460   1.474       .  S
C291        O296   1.267       .  A
C291        O294   1.266       .  A
C291        C469   1.484       .  S
Cd292       O299   2.417       .  S
Cd292       O298   2.446       .  S
Cd292       O297   2.416       .  S
Cd292       O293   2.497       .  S
Cd292       O296   2.481       .  S
Cd292       O294   2.429       .  S
C295        O299   1.262       .  A
C295        C960   1.476       .  S
O300        C303   1.270       .  A
O300       Cd305   2.499       .  S
C301        O310   1.269       .  A
C301        O306   1.269       .  A
C301        C409   1.484       .  S
O302        C308   1.272       .  A
O302       Cd305   2.492       .  S
C303        O311   1.263       .  A
C303        C580   1.486       .  S
C304        O309   1.271       .  A
C304        O307   1.265       .  A
C304        C429   1.476       .  S
Cd305       O312   2.423       .  S
Cd305       O311   2.393       .  S
Cd305       O310   2.455       .  S
Cd305       O306   2.447       .  S
Cd305       O309   2.483       .  S
Cd305       O307   2.438       .  S
C308        O312   1.265       .  A
C308        C800   1.477       .  S
C313       C1720   1.481       .  S
C313        C314   1.413       .  A
C313        C318   1.404       .  A
C314       C1809   1.476       .  S
C314        C315   1.398       .  A
C315        C316   1.398       .  A
C315        H320   1.084       .  S
C316        C689   1.479       .  S
C316        C317   1.415       .  A
C317        C729   1.479       .  S
C317        C318   1.404       .  A
C318        H319   1.084       .  S
C321       C1660   1.483       .  S
C321        C322   1.417       .  A
C321        C326   1.406       .  A
C322       C1540   1.486       .  S
C322        C323   1.400       .  A
C323        C324   1.400       .  A
C323        H328   1.084       .  S
C324        C589   1.480       .  S
C324        C325   1.415       .  A
C325        C629   1.486       .  S
C325        C326   1.407       .  A
C326        H327   1.084       .  S
C329       C1120   1.480       .  S
C329        C330   1.414       .  A
C329        C334   1.403       .  A
C330       C1160   1.483       .  S
C330        C331   1.403       .  A
C331        C332   1.405       .  A
C331        H336   1.084       .  S
C332        C969   1.479       .  S
C332        C333   1.414       .  A
C333        C880   1.486       .  S
C333        C334   1.402       .  A
C334        H335   1.084       .  S
C337       C1220   1.476       .  S
C337        C338   1.414       .  A
C337        C342   1.394       .  A
C338       C1080   1.481       .  S
C338        C339   1.411       .  A
C339        C340   1.420       .  A
C339        H344   1.078       .  S
C340        C829   1.531       .  S
C340        C341   1.386       .  A
C341        C909   1.413       .  S
C341        C342   1.390       .  A
C342        H343   1.084       .  S
C345       C1480   1.487       .  S
C345        C346   1.415       .  A
C345        C350   1.403       .  A
C346       C1440   1.473       .  S
C346        C347   1.402       .  A
C347        C348   1.399       .  A
C347        H352   1.084       .  S
C348        C560   1.483       .  S
C348        C349   1.415       .  A
C349        C480   1.477       .  S
C349        C350   1.404       .  A
C350        H351   1.084       .  S
C353       C1260   1.485       .  S
C353        C354   1.417       .  A
C353        C358   1.404       .  A
C354       C1369   1.482       .  S
C354        C355   1.402       .  A
C355        C356   1.404       .  A
C355        H360   1.084       .  S
C356        C500   1.487       .  S
C356        C357   1.417       .  A
C357        C440   1.481       .  S
C357        C358   1.401       .  A
C358        H359   1.084       .  S
C361       C1269   1.479       .  S
C361        C362   1.416       .  A
C361        C366   1.400   1_565  A
C362       C1500   1.483   1_455  S
C362        C363   1.400   1_465  A
C363        C364   1.401   1_655  A
C363        H368   1.084       .  S
C364        C449   1.480   1_455  S
C364        C365   1.415       .  A
C365        C420   1.481       .  S
C365        C366   1.403       .  A
C366        H367   1.084       .  S
C369       C1389   1.482   1_655  S
C369        C370   1.414       .  A
C369        C374   1.401   1_655  A
C370       C1420   1.478       .  S
C370        C371   1.404       .  A
C371        C372   1.403   1_565  A
C371        H376   1.084       .  S
C372        C540   1.488       .  S
C372        C373   1.416       .  A
C373        C509   1.481   1_655  S
C373        C374   1.403   1_645  A
C374        H375   1.084       .  S
C377       C1060   1.485       .  S
C377        C378   1.417   1_545  A
C377        C382   1.404       .  A
C378       C1100   1.487       .  S
C378        C379   1.404       .  A
C379        C380   1.404   1_556  A
C379        H384   1.084       .  S
C380        C860   1.485       .  S
C380        C381   1.416   1_565  A
C381        C820   1.485       .  S
C381        C382   1.405   1_554  A
C382        H383   1.084       .  S
C385       C1180   1.486       .  S
C385        C386   1.416   1_565  A
C385        C390   1.407       .  A
C386       C1189   1.486       .  S
C386        C387   1.401       .  A
C387        C388   1.400   1_546  A
C387        H392   1.084   1_556  S
C388        C940   1.481   1_565  S
C388        C389   1.416       .  A
C389        C989   1.491       .  S
C389        C390   1.410   1_554  A
C390        H391   1.084       .  S
C393       C1549   1.486       .  S
C393        C394   1.415       .  A
C393        C398   1.403   1_655  A
C394       C1840   1.481       .  S
C394        C395   1.402   1_655  A
C395        C396   1.401       .  A
C395        H400   1.084       .  S
C396        C680   1.478       .  S
C396        C397   1.416       .  A
C397        C620   1.487   1_556  S
C397        C398   1.404       .  A
C398        H399   1.084   1_556  S
C401       C1680   1.475       .  S
C401        C402   1.408   1_554  A
C401        C406   1.399   1_655  A
C402       C1700   1.472       .  S
C402        C403   1.397   1_655  A
C403        C404   1.400   1_556  A
C403        H408   1.085       .  S
C404        C760   1.480   1_554  S
C404        C405   1.419       .  A
C405        C660   1.479       .  S
C405        C406   1.401       .  A
C406        H407   1.084       .  S
C409        C410   1.415       .  A
C409        C414   1.408       .  A
C410        C411   1.398       .  A
C410       Br426   1.920       .  S
C411        C412   1.401       .  A
C411        H415   1.084       .  S
C412        C416   1.476       .  S
C412        C413   1.405       .  A
C413        C414   1.399       .  A
C413       Br425   1.920       .  S
C414        H417   1.083       .  S
C416        C418   1.402       .  A
C416        C422   1.407       .  A
C418        C419   1.396       .  A
C418        H423   1.084       .  S
C419        C420   1.409       .  A
C419       Br427   1.920       .  S
C420        C421   1.405       .  A
C421        C422   1.399       .  A
C421        H424   1.083       .  S
C422       Br428   1.916       .  S
C429        C430   1.409       .  A
C429        C434   1.403       .  A
C430        C431   1.401       .  A
C430       Br446   1.919       .  S
C431        C432   1.406       .  A
C431        H435   1.083       .  S
C432        C436   1.487       .  S
C432        C433   1.411       .  A
C433        C434   1.400       .  A
C433       Br445   1.920       .  S
C434        H437   1.084       .  S
C436        C438   1.404       .  A
C436        C442   1.413       .  A
C438        C439   1.396       .  A
C438        H443   1.083       .  S
C439        C440   1.405       .  A
C439       Br447   1.916       .  S
C440        C441   1.402       .  A
C441        C442   1.402       .  A
C441        H444   1.083       .  S
C442       Br448   1.919       .  S
C449        C450   1.407       .  A
C449        C454   1.405   1_655  A
C450        C451   1.396       .  A
C450       Br466   1.918       .  S
C451        C452   1.401       .  A
C451        H455   1.084       .  S
C452        C456   1.472       .  S
C452        C453   1.406   1_655  A
C453        C454   1.400       .  A
C453       Br465   1.917       .  S
C454        H457   1.083       .  S
C456        C458   1.401       .  A
C456        C462   1.406       .  A
C458        C459   1.397       .  A
C458        H463   1.084       .  S
C459        C460   1.410       .  A
C459       Br467   1.918       .  S
C460        C461   1.406       .  A
C461        C462   1.399       .  A
C461        H464   1.084       .  S
C462       Br468   1.918       .  S
C469        C470   1.417       .  A
C469        C474   1.407       .  A
C470        C471   1.403       .  A
C470       Br486   1.920       .  S
C471        C472   1.402       .  A
C471        H475   1.084       .  S
C472        C476   1.472       .  S
C472        C473   1.402       .  A
C473        C474   1.393       .  A
C473       Br485   1.919       .  S
C474        H477   1.083       .  S
C476        C478   1.401       .  A
C476        C482   1.407       .  A
C478        C479   1.399       .  A
C478        H483   1.083       .  S
C479        C480   1.410       .  A
C479       Br487   1.918       .  S
C480        C481   1.400       .  A
C481        C482   1.395       .  A
C481        H484   1.083       .  S
C482       Br488   1.918       .  S
C489        C490   1.420       .  A
C489        C494   1.407       .  A
C490        C491   1.398       .  A
C490       Br506   1.924       .  S
C491        C492   1.398       .  A
C491        H495   1.084       .  S
C492        C496   1.478       .  S
C492        C493   1.407       .  A
C493        C494   1.400       .  A
C493       Br505   1.917       .  S
C494        H497   1.083       .  S
C496        C498   1.403       .  A
C496        C502   1.405       .  A
C498        C499   1.401       .  A
C498        H503   1.083       .  S
C499        C500   1.410       .  A
C499       Br507   1.919       .  S
C500        C501   1.405       .  A
C501        C502   1.398       .  A
C501        H504   1.083       .  S
C502       Br508   1.918       .  S
C509        C510   1.408       .  A
C509        C514   1.405   1_455  A
C510        C511   1.399       .  A
C510       Br526   1.918       .  S
C511        C512   1.403       .  A
C511        H515   1.083       .  S
C512        C516   1.472       .  S
C512        C513   1.404   1_455  A
C513        C514   1.395       .  A
C513       Br525   1.918       .  S
C514        H517   1.083       .  S
C516        C518   1.401       .  A
C516        C522   1.405       .  A
C518        C519   1.400       .  A
C518        H523   1.083       .  S
C519        C520   1.412       .  A
C519       Br527   1.920       .  S
C520        C521   1.404       .  A
C521        C522   1.396       .  A
C521        H524   1.084       .  S
C522       Br528   1.919       .  S
C529        C530   1.416       .  A
C529        C534   1.408       .  A
C530        C531   1.404       .  A
C530       Br546   1.919       .  S
C531        C532   1.404       .  A
C531        H535   1.083       .  S
C532        C536   1.480       .  S
C532        C533   1.403       .  A
C533        C534   1.396       .  A
C533       Br545   1.918       .  S
C534        H537   1.083       .  S
C536        C538   1.402       .  A
C536        C542   1.405       .  A
C538        C539   1.398       .  A
C538        H543   1.084       .  S
C539        C540   1.410       .  A
C539       Br547   1.916       .  S
C540        C541   1.407       .  A
C541        C542   1.400       .  A
C541        H544   1.083       .  S
C542       Br548   1.912       .  S
C549        C550   1.410       .  A
C549        C554   1.405       .  A
C550        C551   1.399       .  A
C550       Br566   1.918       .  S
C551        C552   1.404       .  A
C551        H555   1.084       .  S
C552        C556   1.483       .  S
C552        C553   1.410       .  A
C553        C554   1.400       .  A
C553       Br565   1.919       .  S
C554        H557   1.084       .  S
C556        C558   1.403       .  A
C556        C562   1.412       .  A
C558        C559   1.400       .  A
C558        H563   1.083       .  S
C559        C560   1.409       .  A
C559       Br567   1.917       .  S
C560        C561   1.400       .  A
C561        C562   1.398       .  A
C561        H564   1.083       .  S
C562       Br568   1.920       .  S
C569        C570   1.416       .  A
C569        C574   1.407       .  A
C570        C571   1.403       .  A
C570       Br586   1.920       .  S
C571        C572   1.403       .  A
C571        H575   1.083       .  S
C572        C576   1.474       .  S
C572        C573   1.403       .  A
C573        C574   1.393       .  A
C573       Br585   1.920       .  S
C574        H577   1.083       .  S
C576        C578   1.402       .  A
C576        C582   1.402       .  A
C578        C579   1.402       .  A
C578        H583   1.084       .  S
C579        C580   1.416       .  A
C579       Br587   1.919       .  S
C580        C581   1.410       .  A
C581        C582   1.393       .  A
C581        H584   1.083       .  S
C582       Br588   1.920       .  S
C589        C590   1.408       .  A
C589        C594   1.404       .  A
C590        C591   1.397       .  A
C590       Br606   1.917       .  S
C591        C592   1.402       .  A
C591        H595   1.084       .  S
C592        C596   1.473       .  S
C592        C593   1.405       .  A
C593        C594   1.399       .  A
C593       Br605   1.917       .  S
C594        H597   1.083       .  S
C596        C598   1.398       .  A
C596        C602   1.404       .  A
C598        C599   1.396       .  A
C598        H603   1.083       .  S
C599        C600   1.417       .  A
C599       Br607   1.921       .  S
C600        C601   1.411       .  A
C601        C602   1.401       .  A
C601        H604   1.083       .  S
C602       Br608   1.919       .  S
C609        C610   1.413       .  A
C609        C614   1.406       .  A
C610        C611   1.402       .  A
C610       Br626   1.920       .  S
C611        C612   1.403       .  A
C611        H615   1.083       .  S
C612        C616   1.474       .  S
C612        C613   1.404       .  A
C613        C614   1.393       .  A
C613       Br625   1.920       .  S
C614        H617   1.084       .  S
C616        C618   1.402       .  A
C616        C622   1.406       .  A
C618        C619   1.401       .  A
C618        H623   1.083       .  S
C619        C620   1.412       .  A
C619       Br627   1.918       .  S
C620        C621   1.402       .  A
C621        C622   1.393       .  A
C621        H624   1.077   1_554  S
C622       Br628   1.920       .  S
C629        C630   1.408       .  A
C629        C634   1.406       .  A
C630        C631   1.400       .  A
C630       Br646   1.918       .  S
C631        C632   1.403       .  A
C631        H635   1.084       .  S
C632        C636   1.479       .  S
C632        C633   1.406       .  A
C633        C634   1.401       .  A
C633       Br645   1.917       .  S
C634        H637   1.083       .  S
C636        C638   1.400       .  A
C636        C642   1.406       .  A
C638        C639   1.399       .  A
C638        H643   1.083       .  S
C639        C640   1.416       .  A
C639       Br647   1.921       .  S
C640        C641   1.408       .  A
C641        C642   1.403       .  A
C641        H644   1.083       .  S
C642       Br648   1.917       .  S
C649        C650   1.418       .  A
C649        C654   1.410       .  A
C650        C651   1.397       .  A
C650       Br666   1.922       .  S
C651        C652   1.399       .  A
C651        H655   1.084       .  S
C652        C656   1.472       .  S
C652        C653   1.403       .  A
C653        C654   1.398       .  A
C653       Br665   1.918       .  S
C654        H657   1.083       .  S
C656        C658   1.402       .  A
C656        C662   1.408       .  A
C658        C659   1.398       .  A
C658        H663   1.083       .  S
C659        C660   1.408       .  A
C659       Br667   1.913       .  S
C660        C661   1.402       .  A
C661        C662   1.395       .  A
C661        H664   1.084       .  S
C662       Br668   1.920       .  S
C669        C670   1.417       .  A
C669        C674   1.405       .  A
C670        C671   1.396       .  A
C670       Br686   1.922       .  S
C671        C672   1.397       .  A
C671        H675   1.084       .  S
C672        C676   1.474       .  S
C672        C673   1.406       .  A
C673        C674   1.400       .  A
C673       Br685   1.914       .  S
C674        H677   1.083       .  S
C676        C678   1.402       .  A
C676        C682   1.406       .  A
C678        C679   1.396       .  A
C678        H683   1.084       .  S
C679        C680   1.407       .  A
C679       Br687   1.918       .  S
C680        C681   1.403       .  A
C681        C682   1.399       .  A
C681        H684   1.083       .  S
C682       Br688   1.916       .  S
C689        C690   1.408       .  A
C689        C694   1.401       .  A
C690        C691   1.399       .  A
C690       Br706   1.918       .  S
C691        C692   1.403       .  A
C691        H695   1.083       .  S
C692        C696   1.475       .  S
C692        C693   1.408       .  A
C693        C694   1.395       .  A
C693       Br705   1.920       .  S
C694        H697   1.083       .  S
C696        C698   1.400       .  A
C696        C702   1.409       .  A
C698        C699   1.393       .  A
C698        H703   1.084       .  S
C699        C700   1.412       .  A
C699       Br707   1.924       .  S
C700        C701   1.403       .  A
C701        C702   1.400       .  A
C701        H704   1.083       .  S
C702       Br708   1.918       .  S
C709        C710   1.409       .  A
C709        C714   1.400       .  A
C710        C711   1.400       .  A
C710       Br726   1.919       .  S
C711        C712   1.401       .  A
C711        H715   1.083       .  S
C712        C716   1.467       .  S
C712        C713   1.407       .  A
C713        C714   1.392       .  A
C713       Br725   1.921       .  S
C714        H717   1.084       .  S
C716        C718   1.397       .  A
C716        C722   1.408       .  A
C718        C719   1.393       .  A
C718        H723   1.084       .  S
C719        C720   1.411       .  A
C719       Br727   1.921       .  S
C720        C721   1.401       .  A
C721        C722   1.398       .  A
C721        H724   1.084       .  S
C722       Br728   1.919       .  S
C729        C730   1.407       .  A
C729        C734   1.404       .  A
C730        C731   1.397       .  A
C730       Br746   1.916       .  S
C731        C732   1.402       .  A
C731        H735   1.084       .  S
C732        C736   1.473       .  S
C732        C733   1.406       .  A
C733        C734   1.399       .  A
C733       Br745   1.917       .  S
C734        H737   1.083       .  S
C736        C738   1.404       .  A
C736        C742   1.402       .  A
C738        C739   1.404       .  A
C738        H743   1.082       .  S
C739        C740   1.412       .  A
C739       Br747   1.919       .  S
C740        C741   1.406       .  A
C741        C742   1.393       .  A
C741        H744   1.084       .  S
C742       Br748   1.919       .  S
C749        C750   1.412       .  A
C749        C754   1.405       .  A
C750        C751   1.400       .  A
C750       Br766   1.920       .  S
C751        C752   1.403       .  A
C751        H755   1.084       .  S
C752        C756   1.475       .  S
C752        C753   1.406       .  A
C753        C754   1.396       .  A
C753       Br765   1.919       .  S
C754        H757   1.084       .  S
C756        C758   1.402       .  A
C756        C762   1.408       .  A
C758        C759   1.398   1_556  A
C758        H763   1.083   1_556  S
C759        C760   1.409   1_554  A
C759       Br767   1.917       .  S
C760        C761   1.402       .  A
C761        C762   1.395       .  A
C761        H764   1.084       .  S
C762       Br768   1.918       .  S
C769        C770   1.413       .  A
C769        C774   1.404       .  A
C770        C771   1.393       .  A
C770       Br786   1.924       .  S
C771        C772   1.400       .  A
C771        H775   1.084       .  S
C772        C776   1.472       .  S
C772        C773   1.407       .  A
C773        C774   1.398       .  A
C773       Br785   1.918       .  S
C774        H777   1.083       .  S
C776        C778   1.398       .  A
C776        C782   1.409       .  A
C778        C779   1.391       .  A
C778        H783   1.084       .  S
C779        C780   1.413       .  A
C779       Br787   1.923       .  S
C780        C781   1.404       .  A
C781        C782   1.399       .  A
C781        H784   1.083       .  S
C782       Br788   1.919       .  S
C789        C790   1.411       .  A
C789        C794   1.401       .  A
C790        C791   1.401       .  A
C790       Br806   1.921       .  S
C791        C792   1.402       .  A
C791        H795   1.083       .  S
C792        C796   1.481       .  S
C792        C793   1.411       .  A
C793        C794   1.399       .  A
C793       Br805   1.920       .  S
C794        H797   1.084       .  S
C796        C798   1.404       .  A
C796        C802   1.407       .  A
C798        C799   1.401       .  A
C798        H803   1.084       .  S
C799        C800   1.410       .  A
C799       Br807   1.920       .  S
C800        C801   1.405       .  A
C801        C802   1.400       .  A
C801        H804   1.084       .  S
C802       Br808   1.919       .  S
C809        C810   1.416       .  A
C809        C814   1.411       .  A
C810        C811   1.402       .  A
C810       Br826   1.920       .  S
C811        C812   1.401       .  A
C811        H815   1.078       .  S
C812        C816   1.486       .  S
C812        C813   1.405       .  A
C813        C814   1.400       .  A
C813       Br825   1.919       .  S
C814        H817   1.083       .  S
C816        C818   1.404       .  A
C816        C822   1.411       .  A
C818        C819   1.400       .  A
C818        H823   1.083       .  S
C819        C820   1.407       .  A
C819       Br827   1.917       .  S
C820        C821   1.403       .  A
C821        C822   1.401       .  A
C821        H824   1.083       .  S
C822       Br828   1.918       .  S
C829        C830   1.497       .  A
C829        C834   1.413       .  A
C830        C831   1.456       .  A
C830       Br846   3.705       .  S
C831        C832   1.395       .  A
C831        H835   1.078       .  S
C832        C836   1.484       .  S
C832        C833   1.388       .  A
C833        C834   1.384       .  A
C833       Br845   1.921       .  S
C834        H837   1.077       .  S
C836        C838   1.404       .  A
C836        C842   1.408       .  A
C838        C839   1.400       .  A
C838        H843   1.083       .  S
C839        C840   1.411       .  A
C839       Br847   1.919       .  S
C840        C841   1.405       .  A
C841        C842   1.397       .  A
C841        H844   1.083       .  S
C842       Br848   1.921       .  S
C849        C850   1.420       .  A
C849        C854   1.406       .  A
C850        C851   1.402       .  A
C850       Br866   1.922       .  S
C851        C852   1.402       .  A
C851        H855   1.084       .  S
C852        C856   1.489       .  S
C852        C853   1.409       .  A
C853        C854   1.401       .  A
C853       Br865   1.915       .  S
C854        H857   1.083       .  S
C856        C858   1.407       .  A
C856        C862   1.412       .  A
C858        C859   1.402       .  A
C858        H863   1.083       .  S
C859        C860   1.408       .  A
C859       Br867   1.918       .  S
C860        C861   1.401       .  A
C861        C862   1.398       .  A
C861        H864   1.083       .  S
C862       Br868   1.919       .  S
C869        C870   1.416       .  A
C869        C874   1.405       .  A
C870        C871   1.400       .  A
C870       Br886   1.921       .  S
C871        C872   1.399       .  A
C871        H875   1.084       .  S
C872        C876   1.481       .  S
C872        C873   1.408       .  A
C873        C874   1.402       .  A
C873       Br885   1.912       .  S
C874        H877   1.083       .  S
C876        C878   1.404       .  A
C876        C882   1.407       .  A
C878        C879   1.401       .  A
C878        H883   1.083       .  S
C879        C880   1.408       .  A
C879       Br887   1.918       .  S
C880        C881   1.404       .  A
C881        C882   1.401       .  A
C881        H884   1.083       .  S
C882       Br888   1.916       .  S
C889        C890   1.407       .  A
C889        C894   1.400       .  A
C890        C891   1.400       .  A
C890       Br906   1.918       .  S
C891        C892   1.404       .  A
C891        H895   1.083       .  S
C892        C896   1.470       .  S
C892        C893   1.407       .  A
C893        C894   1.392       .  A
C893       Br905   1.921       .  S
C894        H897   1.084       .  S
C896        C898   1.399       .  A
C896        C902   1.409       .  A
C898        C899   1.395       .  A
C898        H903   1.084       .  S
C899        C900   1.412       .  A
C899       Br907   1.921       .  S
C900        C901   1.402       .  A
C901        C902   1.398       .  A
C901        H904   1.084       .  S
C902       Br908   1.920       .  S
C909        C910   1.628       .  A
C909        C914   1.624       .  A
C910        C911   1.617       .  A
C910       Br926   1.911       .  S
C911        C912   1.635       .  A
C911        H915   1.072       .  S
C912        C916   1.492       .  S
C912        C913   1.621       .  A
C913        C914   1.605       .  A
C913       Br925   1.915       .  S
C914        H917   1.073       .  S
C916        C918   1.405       .  A
C916        C922   1.417       .  A
C918        C919   1.398       .  A
C918        H923   1.084       .  S
C919        C920   1.411       .  A
C919       Br927   1.921       .  S
C920        C921   1.402       .  A
C921        C922   1.400       .  A
C921        H924   1.084       .  S
C922       Br928   1.917       .  S
C929        C930   1.415       .  A
C929        C934   1.406       .  A
C930        C931   1.397       .  A
C930       Br946   1.923       .  S
C931        C932   1.402       .  A
C931        H935   1.084       .  S
C932        C936   1.484       .  S
C932        C933   1.409       .  A
C933        C934   1.402       .  A
C933       Br945   1.919       .  S
C934        H937   1.083       .  S
C936        C938   1.406       .  A
C936        C942   1.410       .  A
C938        C939   1.401       .  A
C938        H943   1.083       .  S
C939        C940   1.408       .  A
C939       Br947   1.918   1_545  S
C940        C941   1.401       .  A
C941        C942   1.398       .  A
C941        H944   1.084       .  S
C942       Br948   1.919       .  S
C949        C950   1.410       .  A
C949        C954   1.401       .  A
C950        C951   1.397       .  A
C950       Br966   1.920       .  S
C951        C952   1.403       .  A
C951        H955   1.083       .  S
C952        C956   1.485       .  S
C952        C953   1.415       .  A
C953        C954   1.399       .  A
C953       Br965   1.921       .  S
C954        H957   1.084       .  S
C956        C958   1.402       .  A
C956        C962   1.414       .  A
C958        C959   1.398       .  A
C958        H963   1.083       .  S
C959        C960   1.413       .  A
C959       Br967   1.922       .  S
C960        C961   1.402       .  A
C961        C962   1.397       .  A
C961        H964   1.084       .  S
C962       Br968   1.922       .  S
C969        C970   1.407       .  A
C969        C974   1.400       .  A
C970        C971   1.401       .  A
C970       Br986   1.919       .  S
C971        C972   1.407       .  A
C971        H975   1.083       .  S
C972        C976   1.487       .  S
C972        C973   1.413       .  A
C973        C974   1.395       .  A
C973       Br985   1.920       .  S
C974        H977   1.083       .  S
C976        C978   1.403       .  A
C976        C982   1.413       .  A
C978        C979   1.398       .  A
C978        H983   1.083       .  S
C979        C980   1.411       .  A
C979       Br987   1.920       .  S
C980        C981   1.403       .  A
C981        C982   1.400       .  A
C981        H984   1.084       .  S
C982       Br988   1.919       .  S
C989        C990   1.412       .  A
C989        C994   1.408       .  A
C990        C991   1.398       .  A
C990      Br1006   1.918       .  S
C991        C992   1.400       .  A
C991        H995   1.084       .  S
C992        C996   1.478       .  S
C992        C993   1.407       .  A
C993        C994   1.401       .  A
C993      Br1005   1.919       .  S
C994        H997   1.082       .  S
C996        C998   1.401       .  A
C996       C1002   1.404       .  A
C998        C999   1.401       .  A
C998       H1003   1.084       .  S
C999       C1000   1.418       .  A
C999      Br1007   1.922       .  S
C1000      C1001   1.409       .  A
C1001      C1002   1.399       .  A
C1001      H1004   1.083       .  S
C1002     Br1008   1.919       .  S
C1009      C1010   1.409       .  A
C1009      C1014   1.406       .  A
C1010      C1011   1.401       .  A
C1010     Br1026   1.918       .  S
C1011      C1012   1.405       .  A
C1011      H1015   1.084       .  S
C1012      C1016   1.479       .  S
C1012      C1013   1.407       .  A
C1013      C1014   1.396       .  A
C1013     Br1025   1.920       .  S
C1014      H1017   1.084       .  S
C1016      C1018   1.403       .  A
C1016      C1022   1.408       .  A
C1018      C1019   1.396       .  A
C1018      H1023   1.084       .  S
C1019      C1020   1.409       .  A
C1019     Br1027   1.920       .  S
C1020      C1021   1.405       .  A
C1021      C1022   1.400       .  A
C1021      H1024   1.084       .  S
C1022     Br1028   1.918       .  S
C1029      C1030   1.409       .  A
C1029      C1034   1.403       .  A
C1030      C1031   1.403       .  A
C1030     Br1046   1.917       .  S
C1031      C1032   1.404       .  A
C1031      H1035   1.083       .  S
C1032      C1036   1.474       .  S
C1032      C1033   1.407       .  A
C1033      C1034   1.393       .  A
C1033     Br1045   1.921       .  S
C1034      H1037   1.084       .  S
C1036      C1038   1.397       .  A
C1036      C1042   1.407       .  A
C1038      C1039   1.396       .  A
C1038      H1043   1.084       .  S
C1039      C1040   1.418       .  A
C1039     Br1047   1.924       .  S
C1040      C1041   1.406       .  A
C1041      C1042   1.400       .  A
C1041      H1044   1.083       .  S
C1042     Br1048   1.918       .  S
C1049      C1050   1.412       .  A
C1049      C1054   1.408       .  A
C1050      C1051   1.402       .  A
C1050     Br1066   1.919       .  S
C1051      C1052   1.403       .  A
C1051      H1055   1.083       .  S
C1052      C1056   1.476       .  S
C1052      C1053   1.403       .  A
C1053      C1054   1.396       .  A
C1053     Br1065   1.918       .  S
C1054      H1057   1.084       .  S
C1056      C1058   1.402       .  A
C1056      C1062   1.407       .  A
C1058      C1059   1.401       .  A
C1058      H1063   1.083       .  S
C1059      C1060   1.411       .  A
C1059     Br1067   1.917   1_545  S
C1060      C1061   1.403       .  A
C1061      C1062   1.399       .  A
C1061      H1064   1.083       .  S
C1062     Br1068   1.918       .  S
C1069      C1070   1.419       .  A
C1069      C1074   1.403       .  A
C1070      C1071   1.404       .  A
C1070     Br1086   1.921       .  S
C1071      C1072   1.402       .  A
C1071      H1075   1.083       .  S
C1072      C1076   1.480       .  S
C1072      C1073   1.406       .  A
C1073      C1074   1.391       .  A
C1073     Br1085   1.912       .  S
C1074      H1077   1.083       .  S
C1076      C1078   1.403       .  A
C1076      C1082   1.409       .  A
C1078      C1079   1.396       .  A
C1078      H1083   1.084       .  S
C1079      C1080   1.406       .  A
C1079     Br1087   1.917       .  S
C1080      C1081   1.405       .  A
C1081      C1082   1.403       .  A
C1081      H1084   1.083       .  S
C1082     Br1088   1.918       .  S
C1089      C1090   1.412       .  A
C1089      C1094   1.405       .  A
C1090      C1091   1.397       .  A
C1090     Br1106   1.921       .  S
C1091      C1092   1.400       .  A
C1091      H1095   1.084       .  S
C1092      C1096   1.481       .  S
C1092      C1093   1.410       .  A
C1093      C1094   1.404       .  A
C1093     Br1105   1.919       .  S
C1094      H1097   1.083       .  S
C1096      C1098   1.405       .  A
C1096      C1102   1.407       .  A
C1098      C1099   1.402       .  A
C1098      H1103   1.083       .  S
C1099      C1100   1.410       .  A
C1099     Br1107   1.919       .  S
C1100      C1101   1.404       .  A
C1101      C1102   1.397       .  A
C1101      H1104   1.083       .  S
C1102     Br1108   1.918       .  S
C1109      C1110   1.415       .  A
C1109      C1114   1.401       .  A
C1110      C1111   1.398       .  A
C1110     Br1126   1.921       .  S
C1111      C1112   1.399       .  A
C1111      H1115   1.084       .  S
C1112      C1116   1.476       .  S
C1112      C1113   1.408       .  A
C1113      C1114   1.399       .  A
C1113     Br1125   1.910       .  S
C1114      H1117   1.083       .  S
C1116      C1118   1.402       .  A
C1116      C1122   1.408       .  A
C1118      C1119   1.401       .  A
C1118      H1123   1.083       .  S
C1119      C1120   1.409       .  A
C1119     Br1127   1.919       .  S
C1120      C1121   1.402       .  A
C1121      C1122   1.398       .  A
C1121      H1124   1.083       .  S
C1122     Br1128   1.919       .  S
C1129      C1130   1.413       .  A
C1129      C1134   1.408       .  A
C1130      C1131   1.404       .  A
C1130     Br1146   1.918       .  S
C1131      C1132   1.404       .  A
C1131      H1135   1.083       .  S
C1132      C1136   1.473       .  S
C1132      C1133   1.403       .  A
C1133      C1134   1.391       .  A
C1133     Br1145   1.921       .  S
C1134      H1137   1.083       .  S
C1136      C1138   1.403       .  A
C1136      C1142   1.402       .  A
C1138      C1139   1.403       .  A
C1138      H1143   1.084       .  S
C1139      C1140   1.416       .  A
C1139     Br1147   1.920       .  S
C1140      C1141   1.409       .  A
C1141      C1142   1.392       .  A
C1141      H1144   1.083       .  S
C1142     Br1148   1.920       .  S
C1149      C1150   1.413       .  A
C1149      C1154   1.405       .  A
C1150      C1151   1.394       .  A
C1150     Br1166   1.921       .  S
C1151      C1152   1.399       .  A
C1151      H1155   1.084       .  S
C1152      C1156   1.485       .  S
C1152      C1153   1.413       .  A
C1153      C1154   1.405       .  A
C1153     Br1165   1.919       .  S
C1154      H1157   1.083       .  S
C1156      C1158   1.406       .  A
C1156      C1162   1.413       .  A
C1158      C1159   1.403       .  A
C1158      H1163   1.083       .  S
C1159      C1160   1.408       .  A
C1159     Br1167   1.916       .  S
C1160      C1161   1.400       .  A
C1161      C1162   1.395       .  A
C1161      H1164   1.083       .  S
C1162     Br1168   1.921       .  S
C1169      C1170   1.417       .  A
C1169      C1174   1.406       .  A
C1170      C1171   1.399       .  A
C1170     Br1186   1.923       .  S
C1171      C1172   1.399       .  A
C1171      H1175   1.084       .  S
C1172      C1176   1.480       .  S
C1172      C1173   1.407       .  A
C1173      C1174   1.402       .  A
C1173     Br1185   1.915       .  S
C1174      H1177   1.083       .  S
C1176      C1178   1.402       .  A
C1176      C1182   1.408       .  A
C1178      C1179   1.398       .  A
C1178      H1183   1.084       .  S
C1179      C1180   1.408       .  A
C1179     Br1187   1.917       .  S
C1180      C1181   1.405       .  A
C1181      C1182   1.404       .  A
C1181      H1184   1.083       .  S
C1182     Br1188   1.918       .  S
C1189      C1190   1.411       .  A
C1189      C1194   1.404       .  A
C1190      C1191   1.398       .  A
C1190     Br1206   1.920       .  S
C1191      C1192   1.404       .  A
C1191      H1195   1.084       .  S
C1192      C1196   1.483       .  S
C1192      C1193   1.410       .  A
C1193      C1194   1.398       .  A
C1193     Br1205   1.919       .  S
C1194      H1197   1.082       .  S
C1196      C1198   1.401       .  A
C1196      C1202   1.408       .  A
C1198      C1199   1.398       .  A
C1198      H1203   1.083       .  S
C1199      C1200   1.416       .  A
C1199     Br1207   1.921       .  S
C1200      C1201   1.410       .  A
C1201      C1202   1.401       .  A
C1201      H1204   1.083       .  S
C1202     Br1208   1.921       .  S
C1209      C1210   1.413       .  A
C1209      C1214   1.403       .  A
C1210      C1211   1.400       .  A
C1210     Br1226   1.921       .  S
C1211      C1212   1.402       .  A
C1211      H1215   1.083       .  S
C1212      C1216   1.482       .  S
C1212      C1213   1.412       .  A
C1213      C1214   1.398       .  A
C1213     Br1225   1.921       .  S
C1214      H1217   1.084       .  S
C1216      C1218   1.405       .  A
C1216      C1222   1.411       .  A
C1218      C1219   1.396       .  A
C1218      H1223   1.084       .  S
C1219      C1220   1.405       .  A
C1219     Br1227   1.918       .  S
C1220      C1221   1.401       .  A
C1221      C1222   1.399       .  A
C1221      H1224   1.083       .  S
C1222     Br1228   1.919       .  S
C1229      C1230   1.411       .  A
C1229      C1234   1.406       .  A
C1230      C1231   1.398       .  A
C1230     Br1246   1.920       .  S
C1231      C1232   1.401       .  A
C1231      H1235   1.084       .  S
C1232      C1236   1.478       .  S
C1232      C1233   1.407       .  A
C1233      C1234   1.401       .  A
C1233     Br1245   1.917       .  S
C1234      H1237   1.084       .  S
C1236      C1238   1.401       .  A
C1236      C1242   1.408       .  A
C1238      C1239   1.401       .  A
C1238      H1243   1.084       .  S
C1239      C1240   1.415       .  A
C1239     Br1247   1.921       .  S
C1240      C1241   1.404       .  A
C1241      C1242   1.399       .  A
C1241      H1244   1.083       .  S
C1242     Br1248   1.919       .  S
C1249      C1250   1.415       .  A
C1249      C1254   1.406       .  A
C1250      C1251   1.393       .  A
C1250     Br1266   1.920       .  S
C1251      C1252   1.399       .  A
C1251      H1255   1.084       .  S
C1252      C1256   1.483       .  S
C1252      C1253   1.411       .  A
C1253      C1254   1.404       .  A
C1253     Br1265   1.919       .  S
C1254      H1257   1.083       .  S
C1256      C1258   1.405       .  A
C1256      C1262   1.410       .  A
C1258      C1259   1.401       .  A
C1258      H1263   1.083       .  S
C1259      C1260   1.409       .  A
C1259     Br1267   1.918       .  S
C1260      C1261   1.402       .  A
C1261      C1262   1.396       .  A
C1261      H1264   1.082       .  S
C1262     Br1268   1.921       .  S
C1269      C1270   1.409       .  A
C1269      C1274   1.401       .  A
C1270      C1271   1.399       .  A
C1270     Br1286   1.915   1_455  S
C1271      C1272   1.401       .  A
C1271      H1275   1.083       .  S
C1272      C1276   1.473       .  S
C1272      C1273   1.409       .  A
C1273      C1274   1.396       .  A
C1273     Br1285   1.921       .  S
C1274      H1277   1.084       .  S
C1276      C1278   1.401       .  A
C1276      C1282   1.402       .  A
C1278      C1279   1.399       .  A
C1278      H1283   1.082       .  S
C1279      C1280   1.413       .  A
C1279     Br1287   1.920       .  S
C1280      C1281   1.410       .  A
C1281      C1282   1.396       .  A
C1281      H1284   1.083       .  S
C1282     Br1288   1.919       .  S
C1289      C1290   1.410       .  A
C1289      C1294   1.407       .  A
C1290      C1291   1.396       .  A
C1290     Br1306   1.921       .  S
C1291      C1292   1.404       .  A
C1291      H1295   1.084       .  S
C1292      C1296   1.482       .  S
C1292      C1293   1.408       .  A
C1293      C1294   1.401       .  A
C1293     Br1305   1.918       .  S
C1294      H1297   1.084       .  S
C1296      C1298   1.406       .  A
C1296      C1302   1.407       .  A
C1298      C1299   1.403       .  A
C1298      H1303   1.083       .  S
C1299      C1300   1.410       .  A
C1299     Br1307   1.918       .  S
C1300      C1301   1.404       .  A
C1301      C1302   1.396       .  A
C1301      H1304   1.083       .  S
C1302     Br1308   1.920       .  S
C1309      C1310   1.412       .  A
C1309      C1314   1.405       .  A
C1310      C1311   1.406       .  A
C1310     Br1326   1.915       .  S
C1311      C1312   1.404       .  A
C1311      H1315   1.083       .  S
C1312      C1316   1.478       .  S
C1312      C1313   1.405       .  A
C1313      C1314   1.394       .  A
C1313     Br1325   1.920       .  S
C1314      H1317   1.084       .  S
C1316      C1318   1.397       .  A
C1316      C1322   1.408       .  A
C1318      C1319   1.399       .  A
C1318      H1323   1.084       .  S
C1319      C1320   1.419       .  A
C1319     Br1327   1.923       .  S
C1320      C1321   1.405       .  A
C1321      C1322   1.402       .  A
C1321      H1324   1.083       .  S
C1322     Br1328   1.918       .  S
C1329      C1330   1.416       .  A
C1329      C1334   1.407       .  A
C1330      C1331   1.403       .  A
C1330     Br1346   1.920       .  S
C1331      C1332   1.402       .  A
C1331      H1335   1.083       .  S
C1332      C1336   1.469       .  S
C1332      C1333   1.402       .  A
C1333      C1334   1.388       .  A
C1333     Br1345   1.922       .  S
C1334      H1337   1.083       .  S
C1336      C1338   1.401       .  A
C1336      C1342   1.404       .  A
C1338      C1339   1.397       .  A
C1338      H1343   1.084       .  S
C1339      C1340   1.412       .  A
C1339     Br1347   1.920       .  S
C1340      C1341   1.408       .  A
C1341      C1342   1.394       .  A
C1341      H1344   1.083       .  S
C1342     Br1348   1.921       .  S
C1349      C1350   1.409       .  A
C1349      C1354   1.406       .  A
C1350      C1351   1.399       .  A
C1350     Br1366   1.919       .  S
C1351      C1352   1.404       .  A
C1351      H1355   1.084       .  S
C1352      C1356   1.479       .  S
C1352      C1353   1.406       .  A
C1353      C1354   1.398       .  A
C1353     Br1365   1.920       .  S
C1354      H1357   1.084       .  S
C1356      C1358   1.402       .  A
C1356      C1362   1.412       .  A
C1358      C1359   1.398       .  A
C1358      H1363   1.084       .  S
C1359      C1360   1.411       .  A
C1359     Br1367   1.921       .  S
C1360      C1361   1.401       .  A
C1361      C1362   1.398       .  A
C1361      H1364   1.084       .  S
C1362     Br1368   1.921       .  S
C1369      C1370   1.407       .  A
C1369      C1374   1.404       .  A
C1370      C1371   1.398       .  A
C1370     Br1386   1.918       .  S
C1371      C1372   1.403       .  A
C1371      H1375   1.084       .  S
C1372      C1376   1.477       .  S
C1372      C1373   1.407       .  A
C1373      C1374   1.401       .  A
C1373     Br1385   1.917       .  S
C1374      H1377   1.083       .  S
C1376      C1378   1.401       .  A
C1376      C1382   1.406       .  A
C1378      C1379   1.399       .  A
C1378      H1383   1.083       .  S
C1379      C1380   1.412       .  A
C1379     Br1387   1.920       .  S
C1380      C1381   1.407       .  A
C1381      C1382   1.399       .  A
C1381      H1384   1.083       .  S
C1382     Br1388   1.918       .  S
C1389      C1390   1.407       .  A
C1389      C1394   1.402       .  A
C1390      C1391   1.399       .  A
C1390     Br1406   1.918       .  S
C1391      C1392   1.405       .  A
C1391      H1395   1.083       .  S
C1392      C1396   1.486       .  S
C1392      C1393   1.412       .  A
C1393      C1394   1.401       .  A
C1393     Br1405   1.919   1_455  S
C1394      H1397   1.083   1_455  S
C1396      C1398   1.404       .  A
C1396      C1402   1.412       .  A
C1398      C1399   1.402       .  A
C1398      H1403   1.083       .  S
C1399      C1400   1.411       .  A
C1399     Br1407   1.921       .  S
C1400      C1401   1.401       .  A
C1401      C1402   1.398       .  A
C1401      H1404   1.084       .  S
C1402     Br1408   1.917       .  S
C1409      C1410   1.414       .  A
C1409      C1414   1.403       .  A
C1410      C1411   1.403       .  A
C1410     Br1426   1.920       .  S
C1411      C1412   1.404       .  A
C1411      H1415   1.083       .  S
C1412      C1416   1.482       .  S
C1412      C1413   1.410       .  A
C1413      C1414   1.393       .  A
C1413     Br1425   1.920       .  S
C1414      H1417   1.083       .  S
C1416      C1418   1.404       .  A
C1416      C1422   1.411       .  A
C1418      C1419   1.395       .  A
C1418      H1423   1.084       .  S
C1419      C1420   1.406       .  A
C1419     Br1427   1.918       .  S
C1420      C1421   1.402       .  A
C1421      C1422   1.401       .  A
C1421      H1424   1.082       .  S
C1422     Br1428   1.918       .  S
C1429      C1430   1.411       .  A
C1429      C1434   1.406       .  A
C1430      C1431   1.398       .  A
C1430     Br1446   1.921       .  S
C1431      C1432   1.402       .  A
C1431      H1435   1.084       .  S
C1432      C1436   1.471       .  S
C1432      C1433   1.403       .  A
C1433      C1434   1.396       .  A
C1433     Br1445   1.918       .  S
C1434      H1437   1.084       .  S
C1436      C1438   1.401       .  A
C1436      C1442   1.409       .  A
C1438      C1439   1.395       .  A
C1438      H1443   1.084       .  S
C1439      C1440   1.406       .  A
C1439     Br1447   1.918       .  S
C1440      C1441   1.402       .  A
C1441      C1442   1.397       .  A
C1441      H1444   1.083       .  S
C1442     Br1448   1.919       .  S
C1449      C1450   1.409       .  A
C1449      C1454   1.403       .  A
C1450      C1451   1.394       .  A
C1450     Br1466   1.922       .  S
C1451      C1452   1.402       .  A
C1451      H1455   1.084       .  S
C1452      C1456   1.476       .  S
C1452      C1453   1.408       .  A
C1453      C1454   1.401       .  A
C1453     Br1465   1.917       .  S
C1454      H1457   1.083       .  S
C1456      C1458   1.404       .  A
C1456      C1462   1.403       .  A
C1458      C1459   1.401       .  A
C1458      H1463   1.084       .  S
C1459      C1460   1.414       .  A
C1459     Br1467   1.920       .  S
C1460      C1461   1.409       .  A
C1461      C1462   1.393       .  A
C1461      H1464   1.083       .  S
C1462     Br1468   1.919       .  S
C1469      C1470   1.417       .  A
C1469      C1474   1.403       .  A
C1470      C1471   1.402       .  A
C1470     Br1486   1.922       .  S
C1471      C1472   1.402       .  A
C1471      H1475   1.084       .  S
C1472      C1476   1.486       .  S
C1472      C1473   1.409       .  A
C1473      C1474   1.399       .  A
C1473     Br1485   1.913       .  S
C1474      H1477   1.083       .  S
C1476      C1478   1.404       .  A
C1476      C1482   1.412       .  A
C1478      C1479   1.402       .  A
C1478      H1483   1.083       .  S
C1479      C1480   1.409       .  A
C1479     Br1487   1.915       .  S
C1480      C1481   1.402       .  A
C1481      C1482   1.401       .  A
C1481      H1484   1.083       .  S
C1482     Br1488   1.920       .  S
C1489      C1490   1.415       .  A
C1489      C1494   1.405       .  A
C1490      C1491   1.400       .  A
C1490     Br1506   1.920       .  S
C1491      C1492   1.402       .  A
C1491      H1495   1.084       .  S
C1492      C1496   1.481       .  S
C1492      C1493   1.409       .  A
C1493      C1494   1.397       .  A
C1493     Br1505   1.921       .  S
C1494      H1497   1.083       .  S
C1496      C1498   1.405       .  A
C1496      C1502   1.409       .  A
C1498      C1499   1.399       .  A
C1498      H1503   1.083       .  S
C1499      C1500   1.408       .  A
C1499     Br1507   1.918       .  S
C1500      C1501   1.404   1_655  A
C1501      C1502   1.397   1_455  A
C1501      H1504   1.083       .  S
C1502     Br1508   1.920   1_655  S
C1509      C1510   1.416       .  A
C1509      C1514   1.408       .  A
C1510      C1511   1.405       .  A
C1510     Br1526   1.919       .  S
C1511      C1512   1.404       .  A
C1511      H1515   1.083       .  S
C1512      C1516   1.476       .  S
C1512      C1513   1.403       .  A
C1513      C1514   1.391       .  A
C1513     Br1525   1.920       .  S
C1514      H1517   1.083       .  S
C1516      C1518   1.403       .  A
C1516      C1522   1.403       .  A
C1518      C1519   1.402       .  A
C1518      H1523   1.084       .  S
C1519      C1520   1.415       .  A
C1519     Br1527   1.920       .  S
C1520      C1521   1.409       .  A
C1521      C1522   1.395       .  A
C1521      H1524   1.083       .  S
C1522     Br1528   1.920       .  S
C1529      C1530   1.415       .  A
C1529      C1534   1.405       .  A
C1530      C1531   1.403       .  A
C1530     Br1546   1.919       .  S
C1531      C1532   1.403       .  A
C1531      H1535   1.083       .  S
C1532      C1536   1.486       .  S
C1532      C1533   1.411       .  A
C1533      C1534   1.398       .  A
C1533     Br1545   1.921       .  S
C1534      H1537   1.083       .  S
C1536      C1538   1.404       .  A
C1536      C1542   1.412       .  A
C1538      C1539   1.397       .  A
C1538      H1543   1.083       .  S
C1539      C1540   1.407       .  A
C1539     Br1547   1.916       .  S
C1540      C1541   1.404       .  A
C1541      C1542   1.401       .  A
C1541      H1544   1.083       .  S
C1542     Br1548   1.920       .  S
C1549      C1550   1.408   1_556  A
C1549      C1554   1.404       .  A
C1550      C1551   1.401       .  A
C1550     Br1566   1.919       .  S
C1551      C1552   1.406       .  A
C1551      H1555   1.084       .  S
C1552      C1556   1.484       .  S
C1552      C1553   1.409   1_554  A
C1553      C1554   1.398       .  A
C1553     Br1565   1.919       .  S
C1554      H1557   1.083       .  S
C1556      C1558   1.404       .  A
C1556      C1562   1.409       .  A
C1558      C1559   1.402       .  A
C1558      H1563   1.082       .  S
C1559      C1560   1.411       .  A
C1559     Br1567   1.917       .  S
C1560      C1561   1.406       .  A
C1561      C1562   1.400       .  A
C1561      H1564   1.084       .  S
C1562     Br1568   1.921       .  S
C1569      C1570   1.409       .  A
C1569      C1574   1.403       .  A
C1570      C1571   1.401       .  A
C1570     Br1586   1.919       .  S
C1571      C1572   1.403       .  A
C1571      H1575   1.083       .  S
C1572      C1576   1.476       .  S
C1572      C1573   1.408       .  A
C1573      C1574   1.396       .  A
C1573     Br1585   1.921       .  S
C1574      H1577   1.084       .  S
C1576      C1578   1.399       .  A
C1576      C1582   1.408       .  A
C1578      C1579   1.397       .  A
C1578      H1583   1.084       .  S
C1579      C1580   1.417       .  A
C1579     Br1587   1.922       .  S
C1580      C1581   1.405       .  A
C1581      C1582   1.400       .  A
C1581      H1584   1.083       .  S
C1582     Br1588   1.918       .  S
C1589      C1590   1.412       .  A
C1589      C1594   1.406       .  A
C1590      C1591   1.394       .  A
C1590     Br1606   1.923       .  S
C1591      C1592   1.400       .  A
C1591      H1595   1.084       .  S
C1592      C1596   1.473       .  S
C1592      C1593   1.406       .  A
C1593      C1594   1.401       .  A
C1593     Br1605   1.917       .  S
C1594      H1597   1.083       .  S
C1596      C1598   1.403       .  A
C1596      C1602   1.403       .  A
C1598      C1599   1.401       .  A
C1598      H1603   1.084       .  S
C1599      C1600   1.412       .  A
C1599     Br1607   1.919       .  S
C1600      C1601   1.407       .  A
C1601      C1602   1.395       .  A
C1601      H1604   1.084       .  S
C1602     Br1608   1.919       .  S
C1609      C1610   1.414       .  A
C1609      C1614   1.403       .  A
C1610      C1611   1.398       .  A
C1610     Br1626   1.922       .  S
C1611      C1612   1.401       .  A
C1611      H1615   1.084       .  S
C1612      C1616   1.478       .  S
C1612      C1613   1.410       .  A
C1613      C1614   1.398       .  A
C1613     Br1625   1.920       .  S
C1614      H1617   1.084       .  S
C1616      C1618   1.401       .  A
C1616      C1622   1.407       .  A
C1618      C1619   1.396       .  A
C1618      H1623   1.084       .  S
C1619      C1620   1.414       .  A
C1619     Br1627   1.921       .  S
C1620      C1621   1.409       .  A
C1621      C1622   1.401       .  A
C1621      H1624   1.083       .  S
C1622     Br1628   1.919       .  S
C1629      C1630   1.412       .  A
C1629      C1634   1.406       .  A
C1630      C1631   1.395       .  A
C1630     Br1646   1.923       .  S
C1631      C1632   1.400       .  A
C1631      H1635   1.084       .  S
C1632      C1636   1.475       .  S
C1632      C1633   1.405       .  A
C1633      C1634   1.402       .  A
C1633     Br1645   1.916       .  S
C1634      H1637   1.083       .  S
C1636      C1638   1.399       .  A
C1636      C1642   1.408       .  A
C1638      C1639   1.398       .  A
C1638      H1643   1.084       .  S
C1639      C1640   1.415       .  A
C1639     Br1647   1.921       .  S
C1640      C1641   1.404       .  A
C1641      C1642   1.400       .  A
C1641      H1644   1.083       .  S
C1642     Br1648   1.919       .  S
C1649      C1650   1.412       .  A
C1649      C1654   1.408       .  A
C1650      C1651   1.396       .  A
C1650     Br1666   1.922       .  S
C1651      C1652   1.401       .  A
C1651      H1655   1.079       .  S
C1652      C1656   1.480       .  S
C1652      C1653   1.405       .  A
C1653      C1654   1.401       .  A
C1653     Br1665   1.916       .  S
C1654      H1657   1.083       .  S
C1656      C1658   1.402       .  A
C1656      C1662   1.410       .  A
C1658      C1659   1.401       .  A
C1658      H1663   1.083       .  S
C1659      C1660   1.409       .  A
C1659     Br1667   1.915       .  S
C1660      C1661   1.402       .  A
C1661      C1662   1.399       .  A
C1661      H1664   1.083       .  S
C1662     Br1668   1.920       .  S
C1669      C1670   1.416       .  A
C1669      C1674   1.409       .  A
C1670      C1671   1.399       .  A
C1670     Br1686   1.919       .  S
C1671      C1672   1.400       .  A
C1671      H1675   1.084       .  S
C1672      C1676   1.471       .  S
C1672      C1673   1.402       .  A
C1673      C1674   1.396       .  A
C1673     Br1685   1.919       .  S
C1674      H1677   1.083       .  S
C1676      C1678   1.401       .  A
C1676      C1682   1.403       .  A
C1678      C1679   1.394       .  A
C1678      H1683   1.084       .  S
C1679      C1680   1.407       .  A
C1679     Br1687   1.920       .  S
C1680      C1681   1.405       .  A
C1681      C1682   1.399       .  A
C1681      H1684   1.083       .  S
C1682     Br1688   1.912       .  S
C1689      C1690   1.404       .  A
C1689      C1694   1.401       .  A
C1690      C1691   1.399       .  A
C1690     Br1706   1.916       .  S
C1691      C1692   1.405       .  A
C1691      H1695   1.084       .  S
C1692      C1696   1.474       .  S
C1692      C1693   1.408       .  A
C1693      C1694   1.396       .  A
C1693     Br1705   1.921       .  S
C1694      H1697   1.083       .  S
C1696      C1698   1.404       .  A
C1696      C1702   1.408       .  A
C1698      C1699   1.396       .  A
C1698      H1703   1.083       .  S
C1699      C1700   1.405       .  A
C1699     Br1707   1.918       .  S
C1700      C1701   1.401       .  A
C1701      C1702   1.396       .  A
C1701      H1704   1.083   1_556  S
C1702     Br1708   1.919       .  S
C1709      C1710   1.415       .  A
C1709      C1714   1.403       .  A
C1710      C1711   1.398       .  A
C1710     Br1726   1.920       .  S
C1711      C1712   1.401       .  A
C1711      H1715   1.083       .  S
C1712      C1716   1.486       .  S
C1712      C1713   1.411       .  A
C1713      C1714   1.398       .  A
C1713     Br1725   1.914       .  S
C1714      H1717   1.084       .  S
C1716      C1718   1.405       .  A
C1716      C1722   1.413       .  A
C1718      C1719   1.399       .  A
C1718      H1723   1.083       .  S
C1719      C1720   1.406       .  A
C1719     Br1727   1.918       .  S
C1720      C1721   1.402       .  A
C1721      C1722   1.400       .  A
C1721      H1724   1.083       .  S
C1722     Br1728   1.920       .  S
C1729      C1730   1.414       .  A
C1729      C1734   1.403       .  A
C1730      C1731   1.397       .  A
C1730     Br1746   1.921       .  S
C1731      C1732   1.398       .  A
C1731      H1735   1.083       .  S
C1732      C1736   1.472       .  S
C1732      C1733   1.408       .  A
C1733      C1734   1.397       .  A
C1733     Br1745   1.919       .  S
C1734      H1737   1.083       .  S
C1736      C1738   1.400       .  A
C1736      C1742   1.405       .  A
C1738      C1739   1.400       .  A
C1738      H1743   1.084       .  S
C1739      C1740   1.415       .  A
C1739     Br1747   1.917       .  S
C1740      C1741   1.406       .  A
C1741      C1742   1.394       .  A
C1741      H1744   1.084       .  S
C1742     Br1748   1.919       .  S
C1749      C1750   1.412       .  A
C1749      C1754   1.402       .  A
C1750      C1751   1.397       .  A
C1750     Br1766   1.921       .  S
C1751      C1752   1.400       .  A
C1751      H1755   1.084       .  S
C1752      C1756   1.477       .  S
C1752      C1753   1.411       .  A
C1753      C1754   1.397       .  A
C1753     Br1765   1.921       .  S
C1754      H1757   1.084       .  S
C1756      C1758   1.402       .  A
C1756      C1762   1.411       .  A
C1758      C1759   1.398       .  A
C1758      H1763   1.084       .  S
C1759      C1760   1.410       .  A
C1759     Br1767   1.920       .  S
C1760      C1761   1.401       .  A
C1761      C1762   1.397       .  A
C1761      H1764   1.084       .  S
C1762     Br1768   1.921       .  S
C1769      C1770   1.408       .  A
C1769      C1774   1.402       .  A
C1770      C1771   1.397       .  A
C1770     Br1786   1.920       .  S
C1771      C1772   1.401       .  A
C1771      H1775   1.084       .  S
C1772      C1776   1.475       .  S
C1772      C1773   1.410       .  A
C1773      C1774   1.401       .  A
C1773     Br1785   1.920       .  S
C1774      H1777   1.084       .  S
C1776      C1778   1.402       .  A
C1776      C1782   1.406       .  A
C1778      C1779   1.396       .  A
C1778      H1783   1.084       .  S
C1779      C1780   1.410       .  A
C1779     Br1787   1.921       .  S
C1780      C1781   1.406       .  A
C1781      C1782   1.400       .  A
C1781      H1784   1.084       .  S
C1782     Br1788   1.917       .  S
C1789      C1790   1.420       .  A
C1789      C1794   1.408       .  A
C1790      C1791   1.398       .  A
C1790     Br1806   1.923       .  S
C1791      C1792   1.398       .  A
C1791      H1795   1.084       .  S
C1792      C1796   1.475       .  S
C1792      C1793   1.405       .  A
C1793      C1794   1.399       .  A
C1793     Br1805   1.918       .  S
C1794      H1797   1.083       .  S
C1796      C1798   1.398       .  A
C1796      C1802   1.406       .  A
C1798      C1799   1.395       .  A
C1798      H1803   1.084       .  S
C1799      C1800   1.417       .  A
C1799     Br1807   1.925       .  S
C1800      C1801   1.406       .  A
C1801      C1802   1.403       .  A
C1801      H1804   1.083       .  S
C1802     Br1808   1.916       .  S
C1809      C1810   1.405       .  A
C1809      C1814   1.399       .  A
C1810      C1811   1.398       .  A
C1810     Br1826   1.919       .  S
C1811      C1812   1.407       .  A
C1811      H1815   1.083       .  S
C1812      C1816   1.486       .  S
C1812      C1813   1.413       .  A
C1813      C1814   1.397       .  A
C1813     Br1825   1.919       .  S
C1814      H1817   1.083       .  S
C1816      C1818   1.403       .  A
C1816      C1822   1.413       .  A
C1818      C1819   1.400       .  A
C1818      H1823   1.083       .  S
C1819      C1820   1.413       .  A
C1819     Br1827   1.920       .  S
C1820      C1821   1.402       .  A
C1821      C1822   1.398       .  A
C1821      H1824   1.084       .  S
C1822     Br1828   1.918       .  S
C1829      C1830   1.416       .  A
C1829      C1834   1.409       .  A
C1830      C1831   1.401       .  A
C1830     Br1846   1.920       .  S
C1831      C1832   1.402       .  A
C1831      H1835   1.084       .  S
C1832      C1836   1.475       .  S
C1832      C1833   1.402       .  A
C1833      C1834   1.397       .  A
C1833     Br1845   1.918       .  S
C1834      H1837   1.083       .  S
C1836      C1838   1.402       .  A
C1836      C1842   1.405       .  A
C1838      C1839   1.397       .  A
C1838      H1843   1.084       .  S
C1839      C1840   1.409       .  A
C1839     Br1847   1.919       .  S
C1840      C1841   1.405       .  A
C1841      C1842   1.398       .  A
C1841      H1844   1.083       .  S
C1842     Br1848   1.914       .  S
