geometry optimzed in LAMMPS
_audit_creation_date              2020-12-01 
_audit_creation_method            'lammps2cif' 
_symmetry_space_group_name_H-M    'P1' 
_symmetry_Int_Tables_number       1 
_symmetry_cell_setting            triclinic 
loop_ 
_symmetry_equiv_pos_as_xyz 
  x,y,z 
_cell_length_a                    39.49316287 
_cell_length_b                    39.821113882310044 
_cell_length_c                    42.93138066965517 
_cell_angle_alpha                 90.33551615963101 
_cell_angle_beta                  90.15569257476251 
_cell_angle_gamma                 120.60250877966293 
loop_ 
_atom_site_label 
_atom_site_type_symbol 
_atom_site_fract_x 
_atom_site_fract_y 
_atom_site_fract_z 
_atom_site_charge 
O1          O  0.26097749  0.46022191  0.96951679    -0.72600
O2          O  0.30236278  0.04097856  0.03269487    -0.72600
O3          O  0.26335860  0.46257541  0.03272472    -0.72700
O4          O  0.30154316  0.03837722  0.96938505    -0.72700
O5          O  0.24446655  0.03700114  0.96728217    -0.72700
O6          O  0.20719355  0.46291926  0.03487822    -0.72600
O7          O  0.24631791  0.04183493  0.03058714    -0.72600
O8          O  0.20358044  0.45838855  0.97173545    -0.72700
Ni9        Ni  0.28406778  0.00058211  0.00111082     1.25400
Ni10       Ni  0.22333319  0.50007105  0.00116773     1.25400
C11         C  0.22531987  0.44635044  0.96025536     0.89600
C12         C  0.28065790  0.05445524  0.04194921     0.89500
C13         C  0.22972796  0.45069238  0.04488578     0.89500
C14         C  0.27925375  0.04904119  0.95681727     0.89700
C15         C  0.14601406  0.30984482  0.80841111     0.05000
C16         C  0.10470269  0.29013982  0.80781475    -0.11200
C17         C  0.08374136  0.29520437  0.83194461     0.02500
C18         C  0.10471143  0.32099030  0.85658150    -0.09700
C19         C  0.14612152  0.34063118  0.85774201     0.04900
C20         C  0.16645744  0.33478602  0.83347534    -0.09100
H21         H  0.08879477  0.27064455  0.78852275     0.10500
H22         H  0.08866099  0.32530004  0.87507810     0.08100
H23         H  0.19816992  0.34857854  0.83454968     0.07900
C24         C  0.35036024  0.18906287  0.80814258     0.05000
C25         C  0.39167208  0.21149572  0.80866488    -0.11200
C26         C  0.41320714  0.20592115  0.83198153     0.02500
C27         C  0.39303588  0.17814765  0.85514739    -0.09700
C28         C  0.35165823  0.15605260  0.85510978     0.04900
C29         C  0.33053332  0.16138760  0.83133420    -0.09100
H30         H  0.40703895  0.23297308  0.79073071     0.10500
H31         H  0.40955800  0.17420601  0.87350492     0.08100
H32         H  0.29866337  0.14430275  0.83103097     0.07900
O33         O  0.46339833  0.26261320  0.36754906    -0.72600
O34         O  0.04016781  0.30117965  0.30191663    -0.72600
O35         O  0.46119272  0.26454496  0.30438338    -0.72700
O36         O  0.04282430  0.30064845  0.36483817    -0.72700
O37         O  0.03813280  0.24232902  0.36510726    -0.72700
O38         O  0.45969882  0.20803156  0.30008500    -0.72600
O39         O  0.03916836  0.24459069  0.30206671    -0.72600
O40         O  0.45856001  0.20443285  0.36302050    -0.72700
Ni41       Ni  0.50194920  0.28428585  0.33479029     1.25400
Ni42       Ni  0.49879131  0.22276222  0.33251177     1.25400
C43         C  0.44820127  0.22685655  0.37573748     0.89600
C44         C  0.05226826  0.27890507  0.29146145     0.89500
C45         C  0.44774659  0.23111191  0.29145189     0.89500
C46         C  0.05359704  0.27754230  0.37521419     0.89700
C47         C  0.30362404  0.15902950  0.14335608     0.05000
C48         C  0.28030997  0.17652998  0.14349241    -0.11200
C49         C  0.28372907  0.20193929  0.16775773     0.02500
C50         C  0.30969297  0.20866319  0.19254317    -0.09700
C51         C  0.33297715  0.19129202  0.19284720     0.04900
C52         C  0.32991628  0.16671514  0.16814243    -0.09100
H53         H  0.26000962  0.17098036  0.12446553     0.10500
H54         H  0.31199609  0.22776073  0.21157577     0.08100
H55         H  0.34906167  0.15463138  0.16771606     0.07900
C56         C  0.18829871  0.33502128  0.14080462     0.05000
C57         C  0.20637339  0.31238596  0.14036602    -0.11200
C58         C  0.19904672  0.28535950  0.16398246     0.02500
C59         C  0.17307355  0.28073164  0.18802335    -0.09700
C60         C  0.15537509  0.30372882  0.18909621     0.04900
C61         C  0.16297392  0.33060441  0.16526716    -0.09100
H62         H  0.22642731  0.31598467  0.12174514     0.10500
H63         H  0.16739279  0.25983880  0.20627557     0.08100
H64         H  0.15043049  0.34925206  0.16639536     0.07900
O65         O  0.25797524  0.29706491  0.69983433    -0.72600
O66         O  0.29770349  0.25677337  0.63587051    -0.72600
O67         O  0.26147857  0.29864040  0.63644616    -0.72700
O68         O  0.29653311  0.25760253  0.69924766    -0.72700
O69         O  0.23893813  0.20171394  0.69913607    -0.72700
O70         O  0.20372247  0.24326991  0.63339227    -0.72600
O71         O  0.23978500  0.20143238  0.63592424    -0.72600
O72         O  0.20051228  0.24132804  0.69677058    -0.72700
Ni73       Ni  0.28048746  0.27951933  0.66788605     1.25400
Ni74       Ni  0.21867384  0.21998005  0.66624637     1.25400
C75         C  0.22254601  0.27467314  0.70938154     0.89600
C76         C  0.27429913  0.22226698  0.62496267     0.89500
C77         C  0.22781999  0.27791080  0.62364500     0.89500
C78         C  0.27369143  0.22386055  0.71038490     0.89700
C79         C  0.31098013  0.14663764  0.52616622     0.05000
C80         C  0.33605910  0.16739520  0.50156265    -0.11200
C81         C  0.34240401  0.14774120  0.47702647     0.02500
C82         C  0.32326719  0.10666760  0.47756786    -0.09700
C83         C  0.29716518  0.08551086  0.50163504     0.04900
C84         C  0.29133956  0.10567601  0.52591140    -0.09100
H85         H  0.34947949  0.19882425  0.50103693     0.10500
H86         H  0.32816080  0.09100748  0.45907607     0.08100
H87         H  0.27135359  0.08940641  0.54461735     0.07900
C88         C  0.19579736  0.35475073  0.52380492     0.05000
C89         C  0.17077173  0.33434038  0.49878718    -0.11200
C90         C  0.16443112  0.35428571  0.47478596     0.02500
C91         C  0.18408032  0.39534687  0.47580585    -0.09700
C92         C  0.21004914  0.41632775  0.50039590     0.04900
C93         C  0.21533063  0.39572611  0.52448992    -0.09100
H94         H  0.15692471  0.30285596  0.49765573     0.10500
H95         H  0.17942247  0.41103300  0.45736313     0.08100
H96         H  0.23466727  0.41163516  0.54388040     0.07900
C97         C  0.23378391  0.02159288  0.49787488     0.25400
C98         C  0.27498335  0.04226414  0.50105898    -0.22700
C99         C  0.29471919  0.02143153  0.50404447     0.20300
C100        C  0.27359231  0.48054512  0.50406551     0.25400
C101        C  0.23232789  0.45973581  0.50066643    -0.22600
C102        C  0.21265075  0.48070066  0.49749167     0.20300
F103        F  0.17285452  0.46157261  0.49471434    -0.12600
F104        F  0.21407297  0.04110448  0.49478598    -0.15000
F105        F  0.29354684  0.46124412  0.50688217    -0.15000
F106        F  0.33444097  0.04075758  0.50747807    -0.12600
C107        C  0.25520985  0.17622751  0.57988880     0.25400
C108        C  0.28534318  0.20529969  0.59879605    -0.22700
C109        C  0.32461318  0.21614081  0.59277396     0.20300
C110        C  0.33327918  0.19735556  0.56894576     0.25400
C111        C  0.30280414  0.16752468  0.55092560    -0.22600
C112        C  0.26387444  0.15761107  0.55639325     0.20300
F113        F  0.23405664  0.13016661  0.53850751    -0.12600
F114        F  0.21699162  0.16590268  0.58378897    -0.15000
F115        F  0.37124349  0.20740860  0.56409137    -0.15000
F116        F  0.35436339  0.24382231  0.61051471    -0.12600
C117        C  0.17939730  0.28292842  0.58825636     0.25400
C118        C  0.21837518  0.29511324  0.59689687    -0.22700
C119        C  0.24947446  0.32546721  0.58005660     0.20300
C120        C  0.24187302  0.34433531  0.55626514     0.25400
C121        C  0.20309537  0.33338463  0.54849735    -0.22600
C122        C  0.17180906  0.30197786  0.56421994     0.20300
F123        F  0.13394520  0.29056213  0.55697659    -0.12600
F124        F  0.14873046  0.25354210  0.60363273    -0.15000
F125        F  0.27260796  0.37303123  0.54037699    -0.15000
F126        F  0.28759791  0.33682079  0.58627596    -0.12600
C127        C  0.22050173  0.20259426  0.16328314     0.25400
C128        C  0.26170924  0.22302477  0.16662762    -0.22700
C129        C  0.28202539  0.26402252  0.16893637     0.20300
C130        C  0.26158249  0.28416735  0.16774635     0.25400
C131        C  0.22042117  0.26373890  0.16457442    -0.22600
C132        C  0.19999891  0.22279508  0.16249524     0.20300
F133        F  0.16023936  0.20245734  0.15932654    -0.12600
F134        F  0.20005594  0.16303392  0.16146727    -0.15000
F135        F  0.28192411  0.32369044  0.17028083    -0.15000
F136        F  0.32182571  0.28465248  0.17186455    -0.12600
C137        C  0.42978455  0.22469689  0.43130766     0.25400
C138        C  0.41901059  0.21061858  0.40073677    -0.22700
C139        C  0.38228374  0.17712274  0.39499712     0.20300
C140        C  0.35684653  0.15740978  0.41961539     0.25400
C141        C  0.36833262  0.17014343  0.45061151    -0.22600
C142        C  0.40494167  0.20438953  0.45611633     0.20300
F143        F  0.41770795  0.21712708  0.48560816    -0.12600
F144        F  0.46550623  0.25666938  0.43732624    -0.15000
F145        F  0.32097874  0.12590527  0.41306765    -0.15000
F146        F  0.37129542  0.16325550  0.36546981    -0.12600
C147        C  0.39253780  0.18081765  0.25777109     0.25400
C148        C  0.41862320  0.22010983  0.26589246    -0.22700
C149        C  0.41662596  0.24955937  0.24934940     0.20300
C150        C  0.38888411  0.24000726  0.22571424     0.25400
C151        C  0.36231717  0.20083761  0.21800272    -0.22600
C152        C  0.36453301  0.17126981  0.23406116     0.20300
F153        F  0.33894716  0.13311369  0.22731470    -0.12600
F154        F  0.39342900  0.15161998  0.27321483    -0.15000
F155        F  0.38871238  0.26926994  0.20975073    -0.15000
F156        F  0.44216463  0.28791722  0.25548463    -0.12600
C157        C  0.11798138  0.29623767  0.27148273     0.25400
C158        C  0.08082809  0.29167172  0.26612963    -0.22700
C159        C  0.06884239  0.29298773  0.23562383     0.20300
C160        C  0.09319000  0.29727812  0.21051123     0.25400
C161        C  0.13012479  0.30079768  0.21568232    -0.22600
C162        C  0.14268644  0.30124891  0.24650096     0.20300
F163        F  0.17883371  0.30640845  0.25243999    -0.12600
F164        F  0.12994360  0.29502374  0.30092657    -0.15000
F165        F  0.07975895  0.29587216  0.18110267    -0.15000
F166        F  0.03251305  0.28757639  0.23006793    -0.12600
C167        C  0.12135931  0.32424566  0.39338476     0.25400
C168        C  0.08382200  0.29246668  0.39964141    -0.22700
C169        C  0.07344907  0.27964535  0.43032099     0.20300
C170        C  0.09979620  0.29945462  0.45475916     0.25400
C171        C  0.13724323  0.33204847  0.44872298    -0.22600
C172        C  0.14812835  0.34355132  0.41766144     0.20300
F173        F  0.18457767  0.37360942  0.41079780    -0.12600
F174        F  0.13168082  0.33712083  0.36375793    -0.15000
F175        F  0.08780309  0.28810379  0.48443493    -0.15000
F176        F  0.03682018  0.24964747  0.43680245    -0.12600
C177        C  0.33249853  0.23335118  0.78220027     0.25400
C178        C  0.32789578  0.19618848  0.78429454    -0.22700
C179        C  0.30215399  0.16647496  0.76355920     0.20300
C180        C  0.28267734  0.17455122  0.74000004     0.25400
C181        C  0.28869234  0.21232648  0.73720873    -0.22600
C182        C  0.31294480  0.24130184  0.75905035     0.20300
F183        F  0.31806006  0.27769095  0.75779263    -0.12600
F184        F  0.35608704  0.26206313  0.80265298    -0.15000
F185        F  0.25987691  0.14626921  0.71900820    -0.15000
F186        F  0.29731910  0.13025798  0.76529321    -0.12600
C187        C  0.01962079  0.23159309  0.82833133     0.25400
C188        C  0.03996825  0.27248950  0.83190180    -0.22700
C189        C  0.01818303  0.29130881  0.83562101     0.20300
C190        C  0.47694536  0.26970375  0.83547365     0.25400
C191        C  0.45678416  0.22889478  0.83203704    -0.22600
C192        C  0.47844310  0.21002345  0.82857146     0.20300
F193        F  0.45961280  0.17066043  0.82493830    -0.12600
F194        F  0.03965091  0.21238660  0.82523220    -0.15000
F195        F  0.45663443  0.28854383  0.83917397    -0.15000
F196        F  0.03683059  0.33070770  0.83881454    -0.12600
C197        C  0.15782887  0.26354593  0.77785167     0.25400
C198        C  0.16757472  0.30207087  0.78391388    -0.22700
C199        C  0.19776209  0.33252488  0.76660807     0.20300
C200        C  0.21682899  0.32424589  0.74274606     0.25400
C201        C  0.20588133  0.28539130  0.73595293    -0.22600
C202        C  0.17678319  0.25529450  0.75433498     0.20300
F203        F  0.16676837  0.21753231  0.74981149    -0.12600
F204        F  0.13013176  0.23372996  0.79507878    -0.15000
F205        F  0.24476619  0.35394645  0.72563104    -0.15000
F206        F  0.20777622  0.37009380  0.77209417    -0.12600
C207        C  0.16842610  0.36737828  0.10029504     0.25400
C208        C  0.19809226  0.36528877  0.11694416    -0.22700
C209        C  0.23762081  0.39284977  0.11109673     0.20300
C210        C  0.24750449  0.42115257  0.08840508     0.25400
C211        C  0.21803102  0.42261836  0.07083171    -0.22600
C212        C  0.17831585  0.39589417  0.07742098     0.20300
F213        F  0.14913885  0.39638908  0.06102142    -0.12600
F214        F  0.12991686  0.34100856  0.10545812    -0.15000
F215        F  0.28622281  0.44741132  0.08386915    -0.15000
F216        F  0.26686873  0.39281113  0.12779099    -0.12600
C217        C  0.29730384  0.12005995  0.06124726     0.25400
C218        C  0.29373458  0.08375886  0.06701252    -0.22700
C219        C  0.29531195  0.07292504  0.09776276     0.20300
C220        C  0.29882153  0.09745588  0.12260465     0.25400
C221        C  0.30143131  0.13357267  0.11699227    -0.22600
C222        C  0.30165546  0.14501633  0.08596692     0.20300
F223        F  0.30589318  0.18029801  0.07953462    -0.13200
F224        F  0.29562614  0.13089833  0.03161673    -0.15000
F225        F  0.29737530  0.08485247  0.15216228    -0.15000
F226        F  0.29059326  0.03735172  0.10381618    -0.12600
C227        C  0.22229854  0.42837483  0.90449622     0.25400
C228        C  0.20874155  0.41732814  0.93498888    -0.22700
C229        C  0.17526070  0.38074480  0.94027701     0.20300
C230        C  0.15555659  0.35531384  0.91534679     0.25400
C231        C  0.16821805  0.36671747  0.88449709    -0.22600
C232        C  0.20202103  0.40350832  0.87940649     0.20300
F233        F  0.21428000  0.41634809  0.85004375    -0.12600
F234        F  0.25363495  0.46437316  0.89885618    -0.15000
F235        F  0.12414479  0.31954490  0.92144797    -0.15000
F236        F  0.16131772  0.36994443  0.96962392    -0.12600
C237        C  0.34087955  0.09898009  0.88623887     0.25400
C238        C  0.33066219  0.12716220  0.87982987    -0.22700
C239        C  0.30096043  0.12784338  0.89746535     0.20300
C240        C  0.28301092  0.10169639  0.92206912     0.25400
C241        C  0.29469357  0.07469587  0.92937653    -0.22600
C242        C  0.32310345  0.07301093  0.91063360     0.20300
F243        F  0.33365887  0.04592118  0.91573921    -0.12600
F244        F  0.36800560  0.09638337  0.86863988    -0.15000
F245        F  0.25552260  0.10389052  0.93944071    -0.15000
F246        F  0.29047327  0.15482516  0.89167839    -0.12600
O247        O  0.26097750  0.96022185  0.96951674    -0.72600
O248        O  0.30236268  0.54097861  0.03269494    -0.72600
O249        O  0.26335843  0.96257549  0.03272472    -0.72700
O250        O  0.30154309  0.53837729  0.96938502    -0.72700
O251        O  0.24446646  0.53700114  0.96728215    -0.72700
O252        O  0.20719336  0.96291931  0.03487823    -0.72600
O253        O  0.24631780  0.54183500  0.03058720    -0.72600
O254        O  0.20358046  0.95838858  0.97173537    -0.72700
Ni255      Ni  0.28406785  0.50058220  0.00111088     1.25400
Ni256      Ni  0.22333316  0.00007103  0.00116767     1.25400
C257        C  0.22531975  0.94635029  0.96025525     0.89600
C258        C  0.28065775  0.55445535  0.04194931     0.89500
C259        C  0.22972772  0.95069250  0.04488583     0.89500
C260        C  0.27925384  0.54904118  0.95681730     0.89700
C261        C  0.14601547  0.80984574  0.80841192     0.05000
C262        C  0.10470344  0.79014032  0.80781519    -0.11200
C263        C  0.08374188  0.79520500  0.83194532     0.02500
C264        C  0.10471108  0.82099024  0.85658166    -0.09700
C265        C  0.14612222  0.84063189  0.85774276     0.04900
C266        C  0.16645840  0.83478630  0.83347567    -0.09100
H267        H  0.08879587  0.77064558  0.78852334     0.10500
H268        H  0.08865757  0.82530116  0.87508207     0.08100
H269        H  0.19817811  0.84858254  0.83455087     0.07900
C270        C  0.35035948  0.68906198  0.80814343     0.05000
C271        C  0.39167158  0.71149511  0.80866545    -0.11200
C272        C  0.41320709  0.70592061  0.83198233     0.02500
C273        C  0.39303649  0.67814771  0.85514801    -0.09700
C274        C  0.35165828  0.65605209  0.85511070     0.04900
C275        C  0.33053292  0.66138702  0.83133473    -0.09100
H276        H  0.40703834  0.73297223  0.79073146     0.10500
H277        H  0.40956148  0.67420543  0.87350865     0.08100
H278        H  0.29865873  0.64429927  0.83103217     0.07900
O279        O  0.46339841  0.76261318  0.36754907    -0.72600
O280        O  0.04016778  0.80117966  0.30191667    -0.72600
O281        O  0.46119264  0.76454487  0.30438330    -0.72700
O282        O  0.04282438  0.80064875  0.36483821    -0.72700
O283        O  0.03813277  0.74232926  0.36510727    -0.72700
O284        O  0.45969873  0.70803148  0.30008484    -0.72600
O285        O  0.03916835  0.74459069  0.30206675    -0.72600
O286        O  0.45856000  0.70443280  0.36302048    -0.72700
Ni287      Ni  0.50194919  0.78428593  0.33479026     1.25400
Ni288      Ni  0.49879129  0.72276233  0.33251171     1.25400
C289        C  0.44820128  0.72685648  0.37573753     0.89600
C290        C  0.05226832  0.77890508  0.29146143     0.89500
C291        C  0.44774643  0.73111182  0.29145168     0.89500
C292        C  0.05359713  0.77754282  0.37521426     0.89700
C293        C  0.30362354  0.65902919  0.14335563     0.05000
C294        C  0.28030945  0.67652955  0.14349158    -0.11200
C295        C  0.28372849  0.70193878  0.16775645     0.02500
C296        C  0.30969231  0.70866274  0.19254224    -0.09700
C297        C  0.33297639  0.69129177  0.19284667     0.04900
C298        C  0.32991593  0.66671523  0.16814246    -0.09100
H299        H  0.26000960  0.67097978  0.12446481     0.10500
H300        H  0.31199426  0.72775747  0.21157218     0.08100
H301        H  0.34906012  0.65463322  0.16771605     0.07900
C302        C  0.18829764  0.83502125  0.14080565     0.05000
C303        C  0.20637298  0.81238616  0.14036627    -0.11200
C304        C  0.19904617  0.78535934  0.16398308     0.02500
C305        C  0.17307405  0.78073090  0.18802340    -0.09700
C306        C  0.15537450  0.80372799  0.18909705     0.04900
C307        C  0.16297382  0.83060399  0.16526741    -0.09100
H308        H  0.22642119  0.81598403  0.12174929     0.10500
H309        H  0.16739281  0.75983708  0.20627658     0.08100
H310        H  0.15042887  0.84925162  0.16639652     0.07900
O311        O  0.25797524  0.79706491  0.69983432    -0.72600
O312        O  0.29770348  0.75677336  0.63587057    -0.72600
O313        O  0.26147867  0.79864059  0.63644616    -0.72700
O314        O  0.29653333  0.75760268  0.69924776    -0.72700
O315        O  0.23893829  0.70171409  0.69913614    -0.72700
O316        O  0.20372261  0.74327005  0.63339235    -0.72600
O317        O  0.23978501  0.70143236  0.63592426    -0.72600
O318        O  0.20051226  0.74132802  0.69677060    -0.72700
Ni319      Ni  0.28048760  0.77951945  0.66788612     1.25400
Ni320      Ni  0.21867396  0.71998017  0.66624644     1.25400
C321        C  0.22254599  0.77467315  0.70938155     0.89600
C322        C  0.27429890  0.72226681  0.62496274     0.89500
C323        C  0.22782060  0.77791143  0.62364507     0.89500
C324        C  0.27369184  0.72386077  0.71038505     0.89700
C325        C  0.31098070  0.64663802  0.52616553     0.05000
C326        C  0.33605937  0.66739526  0.50156233    -0.11200
C327        C  0.34240441  0.64774119  0.47702596     0.02500
C328        C  0.32326734  0.60666743  0.47756748    -0.09700
C329        C  0.29716563  0.58551104  0.50163431     0.04900
C330        C  0.29134000  0.60567630  0.52591084    -0.09100
H331        H  0.34948013  0.69882381  0.50103611     0.10500
H332        H  0.32816124  0.59100752  0.45907538     0.08100
H333        H  0.27135657  0.58940836  0.54461467     0.07900
C334        C  0.19579730  0.85475071  0.52380493     0.05000
C335        C  0.17077168  0.83434042  0.49878722    -0.11200
C336        C  0.16443108  0.85428572  0.47478597     0.02500
C337        C  0.18408036  0.89534694  0.47580593    -0.09700
C338        C  0.21004914  0.91632774  0.50039594     0.04900
C339        C  0.21533064  0.89572614  0.52448998    -0.09100
H340        H  0.15692450  0.80285589  0.49765578     0.10500
H341        H  0.17942243  0.91103310  0.45736324     0.08100
H342        H  0.23466722  0.91163514  0.54388039     0.07900
C343        C  0.23378392  0.52159290  0.49787485     0.25400
C344        C  0.27498328  0.54226414  0.50105875    -0.22700
C345        C  0.29471908  0.52143146  0.50404444     0.20300
C346        C  0.27359240  0.98054506  0.50406548     0.25400
C347        C  0.23232800  0.95973586  0.50066644    -0.22600
C348        C  0.21265074  0.98070060  0.49749168     0.20300
F349        F  0.17285455  0.96157268  0.49471434    -0.12600
F350        F  0.21407291  0.54110448  0.49478598    -0.15000
F351        F  0.29354683  0.96124396  0.50688222    -0.15000
F352        F  0.33444079  0.54075731  0.50747803    -0.12600
C353        C  0.25520993  0.67622751  0.57988878     0.25400
C354        C  0.28534330  0.70529972  0.59879605    -0.22700
C355        C  0.32461306  0.71614075  0.59277396     0.20300
C356        C  0.33327934  0.69735561  0.56894570     0.25400
C357        C  0.30280420  0.66752478  0.55092545    -0.22600
C358        C  0.26387479  0.65761115  0.55639320     0.20300
F359        F  0.23405686  0.63016670  0.53850754    -0.12600
F360        F  0.21699180  0.66590271  0.58378895    -0.15000
F361        F  0.37124349  0.70740867  0.56409137    -0.15000
F362        F  0.35436328  0.74382229  0.61051472    -0.12600
C363        C  0.17939745  0.78292855  0.58825636     0.25400
C364        C  0.21837506  0.79511325  0.59689691    -0.22700
C365        C  0.24947451  0.82546726  0.58005656     0.20300
C366        C  0.24187290  0.84433524  0.55626512     0.25400
C367        C  0.20309536  0.83338465  0.54849735    -0.22600
C368        C  0.17180899  0.80197783  0.56421998     0.20300
F369        F  0.13394516  0.79056207  0.55697672    -0.12600
F370        F  0.14873051  0.75354224  0.60363282    -0.15000
F371        F  0.27260792  0.87303110  0.54037694    -0.15000
F372        F  0.28759775  0.83682065  0.58627594    -0.12600
C373        C  0.22050161  0.70259419  0.16328306     0.25400
C374        C  0.26170905  0.72302483  0.16662707    -0.22700
C375        C  0.28202534  0.76402241  0.16893628     0.20300
C376        C  0.26158232  0.78416725  0.16774628     0.25400
C377        C  0.22042158  0.76373908  0.16457413    -0.22600
C378        C  0.19999875  0.72279507  0.16249520     0.20300
F379        F  0.16023940  0.70245743  0.15932655    -0.12600
F380        F  0.20005579  0.66303392  0.16146724    -0.15000
F381        F  0.28192388  0.82369043  0.17028080    -0.15000
F382        F  0.32182573  0.78465244  0.17186453    -0.12600
C383        C  0.42978453  0.72469686  0.43130766     0.25400
C384        C  0.41901067  0.71061862  0.40073675    -0.22700
C385        C  0.38228373  0.67712279  0.39499709     0.20300
C386        C  0.35684665  0.65740990  0.41961529     0.25400
C387        C  0.36833283  0.67014341  0.45061136    -0.22600
C388        C  0.40494179  0.70438954  0.45611627     0.20300
F389        F  0.41770800  0.71712714  0.48560813    -0.12600
F390        F  0.46550618  0.75666938  0.43732625    -0.15000
F391        F  0.32097887  0.62590537  0.41306762    -0.15000
F392        F  0.37129544  0.66325546  0.36546983    -0.12600
C393        C  0.39253770  0.68081764  0.25777093     0.25400
C394        C  0.41862312  0.72010987  0.26589230    -0.22700
C395        C  0.41662588  0.74955940  0.24934921     0.20300
C396        C  0.38888390  0.74000738  0.22571406     0.25400
C397        C  0.36231683  0.70083771  0.21800275    -0.22600
C398        C  0.36453282  0.67126983  0.23406105     0.20300
F399        F  0.33894712  0.63311361  0.22731477    -0.12600
F400        F  0.39342901  0.65162004  0.27321485    -0.15000
F401        F  0.38871224  0.76927011  0.20975055    -0.15000
F402        F  0.44216485  0.78791724  0.25548468    -0.12600
C403        C  0.11798139  0.79623772  0.27148275     0.25400
C404        C  0.08082788  0.79167170  0.26612969    -0.22700
C405        C  0.06884226  0.79298775  0.23562379     0.20300
C406        C  0.09318979  0.79727807  0.21051131     0.25400
C407        C  0.13012466  0.80079722  0.21568248    -0.22600
C408        C  0.14268620  0.80124884  0.24650119     0.20300
F409        F  0.17883352  0.80640839  0.25244023    -0.12600
F410        F  0.12994382  0.79502379  0.30092651    -0.15000
F411        F  0.07975893  0.79587217  0.18110261    -0.15000
F412        F  0.03251274  0.78757634  0.23006792    -0.12600
C413        C  0.12135935  0.82424569  0.39338479     0.25400
C414        C  0.08382190  0.79246674  0.39964143    -0.22700
C415        C  0.07344911  0.77964539  0.43032098     0.20300
C416        C  0.09979614  0.79945461  0.45475908     0.25400
C417        C  0.13724324  0.83204856  0.44872299    -0.22600
C418        C  0.14812827  0.84355129  0.41766144     0.20300
F419        F  0.18457759  0.87360938  0.41079779    -0.12600
F420        F  0.13168077  0.83712082  0.36375797    -0.15000
F421        F  0.08780302  0.78810378  0.48443480    -0.15000
F422        F  0.03682014  0.74964748  0.43680251    -0.12600
C423        C  0.33249853  0.73335102  0.78220037     0.25400
C424        C  0.32789569  0.69618824  0.78429502    -0.22700
C425        C  0.30215399  0.66647490  0.76355920     0.20300
C426        C  0.28267745  0.67455120  0.74000007     0.25400
C427        C  0.28869244  0.71232646  0.73720872    -0.22600
C428        C  0.31294489  0.74130161  0.75905046     0.20300
F429        F  0.31805997  0.77769061  0.75779265    -0.12600
F430        F  0.35608701  0.76206319  0.80265301    -0.15000
F431        F  0.25987693  0.64626924  0.71900821    -0.15000
F432        F  0.29731911  0.63025799  0.76529311    -0.12600
C433        C  0.01962091  0.73159336  0.82833128     0.25400
C434        C  0.03996880  0.77248960  0.83190170    -0.22700
C435        C  0.01818307  0.79130888  0.83562097     0.20300
C436        C  0.47694535  0.76970367  0.83547359     0.25400
C437        C  0.45678394  0.72889476  0.83203715    -0.22600
C438        C  0.47844325  0.71002357  0.82857152     0.20300
F439        F  0.45961306  0.67066065  0.82493848    -0.12600
F440        F  0.03965086  0.71238664  0.82523219    -0.15000
F441        F  0.45663434  0.78854372  0.83917396    -0.15000
F442        F  0.03683033  0.83070759  0.83881450    -0.12600
C443        C  0.15782902  0.76354623  0.77785154     0.25400
C444        C  0.16757481  0.80207096  0.78391417    -0.22700
C445        C  0.19776228  0.83252511  0.76660796     0.20300
C446        C  0.21682901  0.82424593  0.74274597     0.25400
C447        C  0.20588138  0.78539132  0.73595287    -0.22600
C448        C  0.17678317  0.75529460  0.75433494     0.20300
F449        F  0.16676832  0.71753236  0.74981155    -0.12600
F450        F  0.13013192  0.73373011  0.79507869    -0.15000
F451        F  0.24476622  0.85394647  0.72563097    -0.15000
F452        F  0.20777630  0.87009388  0.77209407    -0.12600
C453        C  0.16842576  0.86737822  0.10029512     0.25400
C454        C  0.19809236  0.86528911  0.11694448    -0.22700
C455        C  0.23762040  0.89284962  0.11109674     0.20300
C456        C  0.24750450  0.92115252  0.08840506     0.25400
C457        C  0.21803097  0.92261843  0.07083171    -0.22600
C458        C  0.17831590  0.89589417  0.07742101     0.20300
F459        F  0.14913888  0.89638913  0.06102145    -0.12600
F460        F  0.12991675  0.84100870  0.10545812    -0.15000
F461        F  0.28622290  0.94741126  0.08386915    -0.15000
F462        F  0.26686854  0.89281103  0.12779101    -0.12600
C463        C  0.29730386  0.62005999  0.06124729     0.25400
C464        C  0.29373448  0.58375878  0.06701261    -0.22700
C465        C  0.29531189  0.57292489  0.09776285     0.20300
C466        C  0.29882156  0.59745579  0.12260469     0.25400
C467        C  0.30143142  0.63357249  0.11699215    -0.22600
C468        C  0.30165566  0.64501642  0.08596685     0.20300
F469        F  0.30589336  0.68029813  0.07953454    -0.13200
F470        F  0.29562612  0.63089827  0.03161671    -0.15000
F471        F  0.29737535  0.58485249  0.15216241    -0.15000
F472        F  0.29059319  0.53735143  0.10381619    -0.12600
C473        C  0.22229859  0.92837478  0.90449626     0.25400
C474        C  0.20874164  0.91732821  0.93498895    -0.22700
C475        C  0.17526063  0.88074477  0.94027707     0.20300
C476        C  0.15555670  0.85531410  0.91534692     0.25400
C477        C  0.16821784  0.86671746  0.88449702    -0.22600
C478        C  0.20202123  0.90350861  0.87940659     0.20300
F479        F  0.21428014  0.91634833  0.85004382    -0.12600
F480        F  0.25363505  0.96437314  0.89885624    -0.15000
F481        F  0.12414484  0.81954503  0.92144796    -0.15000
F482        F  0.16131766  0.86994444  0.96962396    -0.12600
C483        C  0.34087951  0.59897995  0.88623901     0.25400
C484        C  0.33066239  0.62716221  0.87983014    -0.22700
C485        C  0.30096035  0.62784332  0.89746546     0.20300
C486        C  0.28301081  0.60169623  0.92206915     0.25400
C487        C  0.29469353  0.57469590  0.92937653    -0.22600
C488        C  0.32310347  0.57301070  0.91063370     0.20300
F489        F  0.33365896  0.54592108  0.91573926    -0.12600
F490        F  0.36800555  0.59638344  0.86863983    -0.15000
F491        F  0.25552254  0.60389051  0.93944074    -0.15000
F492        F  0.29047333  0.65482518  0.89167838    -0.12600
O493        O  0.76097747  0.46022191  0.96951681    -0.72600
O494        O  0.80236273  0.04097858  0.03269489    -0.72600
O495        O  0.76335838  0.46257551  0.03272472    -0.72700
O496        O  0.80154313  0.03837725  0.96938507    -0.72700
O497        O  0.74446650  0.03700115  0.96728217    -0.72700
O498        O  0.70719327  0.46291928  0.03487823    -0.72600
O499        O  0.74631784  0.04183494  0.03058715    -0.72600
O500        O  0.70358044  0.45838861  0.97173543    -0.72700
Ni501      Ni  0.78406780  0.00058217  0.00111087     1.25400
Ni502      Ni  0.72333308  0.50007104  0.00116770     1.25400
C503        C  0.72531987  0.44635048  0.96025537     0.89600
C504        C  0.78065785  0.05445520  0.04194921     0.89500
C505        C  0.72972762  0.45069249  0.04488582     0.89500
C506        C  0.77925371  0.04904119  0.95681728     0.89700
C507        C  0.64601406  0.30984482  0.80841110     0.05000
C508        C  0.60470266  0.29013981  0.80781476    -0.11200
C509        C  0.58374135  0.29520437  0.83194462     0.02500
C510        C  0.60471141  0.32099031  0.85658150    -0.09700
C511        C  0.64612150  0.34063119  0.85774201     0.04900
C512        C  0.66645742  0.33478604  0.83347536    -0.09100
H513        H  0.58879470  0.27064453  0.78852274     0.10500
H514        H  0.58866098  0.32530005  0.87507809     0.08100
H515        H  0.69816995  0.34857859  0.83454974     0.07900
C516        C  0.85036025  0.18906289  0.80814259     0.05000
C517        C  0.89167210  0.21149574  0.80866492    -0.11200
C518        C  0.91320714  0.20592115  0.83198156     0.02500
C519        C  0.89303588  0.17814762  0.85514739    -0.09700
C520        C  0.85165822  0.15605257  0.85510978     0.04900
C521        C  0.83053332  0.16138759  0.83133421    -0.09100
H522        H  0.90703899  0.23297312  0.79073076     0.10500
H523        H  0.90955801  0.17420598  0.87350489     0.08100
H524        H  0.79866337  0.14430275  0.83103100     0.07900
O525        O  0.96339837  0.26261316  0.36754904    -0.72600
O526        O  0.54016771  0.30117966  0.30191664    -0.72600
O527        O  0.96119275  0.26454508  0.30438337    -0.72700
O528        O  0.54282427  0.30064849  0.36483816    -0.72700
O529        O  0.53813275  0.24232903  0.36510728    -0.72700
O530        O  0.95969882  0.20803168  0.30008492    -0.72600
O531        O  0.53916832  0.24459069  0.30206674    -0.72600
O532        O  0.95856005  0.20443281  0.36302053    -0.72700
Ni533      Ni  0.00194922  0.28428580  0.33479028     1.25400
Ni534      Ni  0.99879132  0.22276220  0.33251175     1.25400
C535        C  0.94820128  0.22685647  0.37573754     0.89600
C536        C  0.55226824  0.27890507  0.29146142     0.89500
C537        C  0.94774658  0.23111169  0.29145181     0.89500
C538        C  0.55359698  0.27754232  0.37521419     0.89700
C539        C  0.80362382  0.15902979  0.14335620     0.05000
C540        C  0.78030964  0.17653002  0.14349191    -0.11200
C541        C  0.78372865  0.20193959  0.16775747     0.02500
C542        C  0.80969191  0.20866359  0.19254283    -0.09700
C543        C  0.83297652  0.19129269  0.19284754     0.04900
C544        C  0.82991565  0.16671541  0.16814242    -0.09100
H545        H  0.76001031  0.17098110  0.12446557     0.10500
H546        H  0.81199446  0.22776333  0.21157700     0.08100
H547        H  0.84906173  0.15463165  0.16771655     0.07900
C548        C  0.68829759  0.33502138  0.14080569     0.05000
C549        C  0.70637280  0.31238633  0.14036636    -0.11200
C550        C  0.69904611  0.28535941  0.16398311     0.02500
C551        C  0.67307388  0.28073107  0.18802342    -0.09700
C552        C  0.65537446  0.30372811  0.18909703     0.04900
C553        C  0.66297371  0.33060430  0.16526749    -0.09100
H554        H  0.72642139  0.31598424  0.12174922     0.10500
H555        H  0.66739279  0.25983717  0.20627673     0.08100
H556        H  0.65042930  0.34925175  0.16639668     0.07900
O557        O  0.75797524  0.29706493  0.69983432    -0.72600
O558        O  0.79770346  0.25677338  0.63587056    -0.72600
O559        O  0.76147871  0.29864055  0.63644619    -0.72700
O560        O  0.79653302  0.25760246  0.69924767    -0.72700
O561        O  0.73893802  0.20171387  0.69913609    -0.72700
O562        O  0.70372262  0.24327004  0.63339238    -0.72600
O563        O  0.73978498  0.20143238  0.63592425    -0.72600
O564        O  0.70051225  0.24132805  0.69677059    -0.72700
Ni565      Ni  0.78048751  0.27951937  0.66788612     1.25400
Ni566      Ni  0.71867385  0.21998010  0.66624641     1.25400
C567        C  0.72254598  0.27467317  0.70938155     0.89600
C568        C  0.77429889  0.22226684  0.62496274     0.89500
C569        C  0.72782062  0.27791131  0.62364516     0.89500
C570        C  0.77369135  0.22386049  0.71038492     0.89700
C571        C  0.81098019  0.14663767  0.52616623     0.05000
C572        C  0.83605912  0.16739516  0.50156269    -0.11200
C573        C  0.84240403  0.14774119  0.47702647     0.02500
C574        C  0.82326714  0.10666754  0.47756786    -0.09700
C575        C  0.79716517  0.08551088  0.50163504     0.04900
C576        C  0.79133957  0.10567602  0.52591144    -0.09100
H577        H  0.84947959  0.19882431  0.50103700     0.10500
H578        H  0.82816076  0.09100741  0.45907606     0.08100
H579        H  0.77135371  0.08940651  0.54461735     0.07900
C580        C  0.69579722  0.35475060  0.52380472     0.05000
C581        C  0.67077137  0.33433986  0.49878694    -0.11200
C582        C  0.66443100  0.35428561  0.47478585     0.02500
C583        C  0.68407998  0.39534647  0.47580568    -0.09700
C584        C  0.71004901  0.41632771  0.50039570     0.04900
C585        C  0.71533026  0.39572574  0.52448962    -0.09100
H586        H  0.65692501  0.30285689  0.49765547     0.10500
H587        H  0.67942230  0.41103301  0.45736296     0.08100
H588        H  0.73466757  0.41163566  0.54388047     0.07900
C589        C  0.73378391  0.02159290  0.49787488     0.25400
C590        C  0.77498333  0.04226419  0.50105900    -0.22700
C591        C  0.79471918  0.02143159  0.50404447     0.20300
C592        C  0.77359226  0.48054512  0.50406548     0.25400
C593        C  0.73232775  0.45973572  0.50066630    -0.22600
C594        C  0.71265072  0.48070070  0.49749165     0.20300
F595        F  0.67285449  0.46157263  0.49471434    -0.12600
F596        F  0.71407294  0.04110445  0.49478598    -0.15000
F597        F  0.79354679  0.46124413  0.50688215    -0.15000
F598        F  0.83444096  0.04075756  0.50747808    -0.12600
C599        C  0.75520989  0.17622754  0.57988884     0.25400
C600        C  0.78534328  0.20529974  0.59879609    -0.22700
C601        C  0.82461307  0.21614082  0.59277399     0.20300
C602        C  0.83327922  0.19735563  0.56894575     0.25400
C603        C  0.80280415  0.16752471  0.55092564    -0.22600
C604        C  0.76387465  0.15761116  0.55639330     0.20300
F605        F  0.73405687  0.13016672  0.53850757    -0.12600
F606        F  0.71699178  0.16590269  0.58378895    -0.15000
F607        F  0.87124340  0.20740867  0.56409129    -0.15000
F608        F  0.85436330  0.24382233  0.61051474    -0.12600
C609        C  0.67939747  0.28292850  0.58825641     0.25400
C610        C  0.71837513  0.29511328  0.59689691    -0.22700
C611        C  0.74947458  0.32546730  0.58005662     0.20300
C612        C  0.74187296  0.34433538  0.55626510     0.25400
C613        C  0.70309523  0.33338451  0.54849733    -0.22600
C614        C  0.67180907  0.30197789  0.56421995     0.20300
F615        F  0.63394523  0.29056215  0.55697661    -0.12600
F616        F  0.64873048  0.25354212  0.60363273    -0.15000
F617        F  0.77260792  0.37303127  0.54037698    -0.15000
F618        F  0.78759790  0.33682083  0.58627592    -0.12600
C619        C  0.72050160  0.20259428  0.16328304     0.25400
C620        C  0.76170885  0.22302469  0.16662711    -0.22700
C621        C  0.78202541  0.26402273  0.16893621     0.20300
C622        C  0.76158228  0.28416738  0.16774625     0.25400
C623        C  0.72042148  0.26373914  0.16457415    -0.22600
C624        C  0.69999870  0.22279505  0.16249517     0.20300
F625        F  0.66023937  0.20245748  0.15932655    -0.12600
F626        F  0.70005574  0.16303376  0.16146725    -0.15000
F627        F  0.78192387  0.32369055  0.17028081    -0.15000
F628        F  0.82182571  0.28465264  0.17186450    -0.12600
C629        C  0.92978451  0.22469682  0.43130767     0.25400
C630        C  0.91901066  0.21061860  0.40073676    -0.22700
C631        C  0.88228373  0.17712276  0.39499713     0.20300
C632        C  0.85684663  0.15740988  0.41961540     0.25400
C633        C  0.86833263  0.17014339  0.45061153    -0.22600
C634        C  0.90494172  0.20438953  0.45611633     0.20300
F635        F  0.91770795  0.21712713  0.48560815    -0.12600
F636        F  0.96550617  0.25666936  0.43732625    -0.15000
F637        F  0.82097887  0.12590535  0.41306765    -0.15000
F638        F  0.87129544  0.16325545  0.36546984    -0.12600
C639        C  0.89253776  0.18081748  0.25777105     0.25400
C640        C  0.91862316  0.22010983  0.26589236    -0.22700
C641        C  0.91662590  0.24955913  0.24934937     0.20300
C642        C  0.88888398  0.24000734  0.22571425     0.25400
C643        C  0.86231655  0.20083760  0.21800285    -0.22600
C644        C  0.86453286  0.17126987  0.23406108     0.20300
F645        F  0.83894704  0.13311364  0.22731466    -0.12600
F646        F  0.89342901  0.15161995  0.27321490    -0.15000
F647        F  0.88871230  0.26926991  0.20975076    -0.15000
F648        F  0.94216468  0.28791694  0.25548467    -0.12600
C649        C  0.61798137  0.29623767  0.27148278     0.25400
C650        C  0.58082795  0.29167170  0.26612972    -0.22700
C651        C  0.56884237  0.29298774  0.23562382     0.20300
C652        C  0.59318990  0.29727806  0.21051137     0.25400
C653        C  0.63012461  0.30079727  0.21568250    -0.22600
C654        C  0.64268629  0.30124883  0.24650120     0.20300
F655        F  0.67883358  0.30640839  0.25244019    -0.12600
F656        F  0.62994375  0.29502376  0.30092654    -0.15000
F657        F  0.57975897  0.29587216  0.18110268    -0.15000
F658        F  0.53251299  0.28757639  0.23006791    -0.12600
C659        C  0.62135926  0.32424565  0.39338474     0.25400
C660        C  0.58382195  0.29246668  0.39964140    -0.22700
C661        C  0.57344901  0.27964533  0.43032097     0.20300
C662        C  0.59979612  0.29945462  0.45475911     0.25400
C663        C  0.63724301  0.33204833  0.44872293    -0.22600
C664        C  0.64812832  0.34355133  0.41766141     0.20300
F665        F  0.68457763  0.37360941  0.41079779    -0.12600
F666        F  0.63168078  0.33712082  0.36375793    -0.15000
F667        F  0.58780300  0.28810379  0.48443491    -0.15000
F668        F  0.53682014  0.24964746  0.43680245    -0.12600
C669        C  0.83249849  0.23335120  0.78220029     0.25400
C670        C  0.82789579  0.19618852  0.78429455    -0.22700
C671        C  0.80215403  0.16647504  0.76355917     0.20300
C672        C  0.78267735  0.17455125  0.74000003     0.25400
C673        C  0.78869229  0.21232647  0.73720873    -0.22600
C674        C  0.81294476  0.24130183  0.75905036     0.20300
F675        F  0.81806001  0.27769093  0.75779262    -0.12600
F676        F  0.85608701  0.26206314  0.80265300    -0.15000
F677        F  0.75987692  0.14626919  0.71900824    -0.15000
F678        F  0.79731916  0.13025808  0.76529312    -0.12600
C679        C  0.51962079  0.23159311  0.82833129     0.25400
C680        C  0.53996825  0.27248950  0.83190181    -0.22700
C681        C  0.51818301  0.29130880  0.83562102     0.20300
C682        C  0.97694536  0.26970377  0.83547364     0.25400
C683        C  0.95678417  0.22889478  0.83203707    -0.22600
C684        C  0.97844308  0.21002342  0.82857154     0.20300
F685        F  0.95961277  0.17066038  0.82493844    -0.12600
F686        F  0.53965091  0.21238661  0.82523219    -0.15000
F687        F  0.95663444  0.28854387  0.83917396    -0.15000
F688        F  0.53683056  0.33070769  0.83881454    -0.12600
C689        C  0.65782892  0.26354601  0.77785157     0.25400
C690        C  0.66757470  0.30207092  0.78391387    -0.22700
C691        C  0.69776212  0.33252491  0.76660805     0.20300
C692        C  0.71682899  0.32424593  0.74274606     0.25400
C693        C  0.70588138  0.28539134  0.73595290    -0.22600
C694        C  0.67678320  0.25529458  0.75433497     0.20300
F695        F  0.66676833  0.21753236  0.74981154    -0.12600
F696        F  0.63013189  0.23372999  0.79507867    -0.15000
F697        F  0.74476617  0.35394646  0.72563101    -0.15000
F698        F  0.70777620  0.37009382  0.77209416    -0.12600
C699        C  0.66842589  0.36737828  0.10029510     0.25400
C700        C  0.69809233  0.36528920  0.11694446    -0.22700
C701        C  0.73762054  0.39284968  0.11109676     0.20300
C702        C  0.74750459  0.42115261  0.08840506     0.25400
C703        C  0.71803106  0.42261849  0.07083173    -0.22600
C704        C  0.67831589  0.39589417  0.07742098     0.20300
F705        F  0.64913881  0.39638903  0.06102148    -0.12600
F706        F  0.62991684  0.34100873  0.10545814    -0.15000
F707        F  0.78622307  0.44741142  0.08386917    -0.15000
F708        F  0.76686857  0.39281101  0.12779106    -0.12600
C709        C  0.79730386  0.12005994  0.06124727     0.25400
C710        C  0.79373452  0.08375886  0.06701254    -0.22700
C711        C  0.79531189  0.07292496  0.09776278     0.20300
C712        C  0.79882150  0.09745598  0.12260465     0.25400
C713        C  0.80143129  0.13357282  0.11699222    -0.22600
C714        C  0.80165555  0.14501645  0.08596693     0.20300
F715        F  0.80589332  0.18029816  0.07953462    -0.13200
F716        F  0.79562611  0.13089833  0.03161673    -0.15000
F717        F  0.79737529  0.08485267  0.15216227    -0.15000
F718        F  0.79059321  0.03735163  0.10381623    -0.12600
C719        C  0.72229851  0.42837484  0.90449624     0.25400
C720        C  0.70874153  0.41732817  0.93498890    -0.22700
C721        C  0.67526067  0.38074482  0.94027702     0.20300
C722        C  0.65555656  0.35531386  0.91534680     0.25400
C723        C  0.66821802  0.36671748  0.88449710    -0.22600
C724        C  0.70202100  0.40350833  0.87940650     0.20300
F725        F  0.71427997  0.41634810  0.85004376    -0.12600
F726        F  0.75363492  0.46437317  0.89885619    -0.15000
F727        F  0.62414476  0.31954490  0.92144797    -0.15000
F728        F  0.66131768  0.36994443  0.96962392    -0.12600
C729        C  0.84087946  0.09898004  0.88623885     0.25400
C730        C  0.83066215  0.12716216  0.87982987    -0.22700
C731        C  0.80096041  0.12784337  0.89746535     0.20300
C732        C  0.78301090  0.10169639  0.92206913     0.25400
C733        C  0.79469354  0.07469587  0.92937654    -0.22600
C734        C  0.82310339  0.07301088  0.91063360     0.20300
F735        F  0.83365880  0.04592113  0.91573923    -0.12600
F736        F  0.86800549  0.09638336  0.86863980    -0.15000
F737        F  0.75552257  0.10389054  0.93944070    -0.15000
F738        F  0.79047328  0.15482516  0.89167838    -0.12600
O739        O  0.76097753  0.96022193  0.96951681    -0.72600
O740        O  0.80236267  0.54097854  0.03269489    -0.72600
O741        O  0.76335842  0.96257551  0.03272473    -0.72700
O742        O  0.80154304  0.53837726  0.96938505    -0.72700
O743        O  0.74446640  0.53700111  0.96728216    -0.72700
O744        O  0.70719333  0.96291932  0.03487823    -0.72600
O745        O  0.74631779  0.54183492  0.03058713    -0.72600
O746        O  0.70358050  0.95838864  0.97173544    -0.72700
Ni747      Ni  0.78406775  0.50058216  0.00111089     1.25400
Ni748      Ni  0.72333315  0.00007107  0.00116771     1.25400
C749        C  0.72531991  0.94635048  0.96025538     0.89600
C750        C  0.78065767  0.55445527  0.04194922     0.89500
C751        C  0.72972771  0.95069250  0.04488583     0.89500
C752        C  0.77925383  0.54904109  0.95681735     0.89700
C753        C  0.64601552  0.80984578  0.80841196     0.05000
C754        C  0.60470349  0.79014038  0.80781522    -0.11200
C755        C  0.58374188  0.79520503  0.83194532     0.02500
C756        C  0.60471114  0.82099029  0.85658166    -0.09700
C757        C  0.64612225  0.84063192  0.85774277     0.04900
C758        C  0.66645851  0.83478636  0.83347570    -0.09100
H759        H  0.58879584  0.77064560  0.78852330     0.10500
H760        H  0.58865756  0.82530119  0.87508205     0.08100
H761        H  0.69817806  0.84858256  0.83455092     0.07900
C762        C  0.85036078  0.68906275  0.80814318     0.05000
C763        C  0.89167210  0.71149548  0.80866526    -0.11200
C764        C  0.91320795  0.70592108  0.83198233     0.02500
C765        C  0.89303690  0.67814784  0.85514817    -0.09700
C766        C  0.85165939  0.65605274  0.85511073     0.04900
C767        C  0.83053400  0.66138773  0.83133457    -0.09100
H768        H  0.90703938  0.73297286  0.79073126     0.10500
H769        H  0.90956239  0.67420586  0.87350857     0.08100
H770        H  0.79866424  0.64430276  0.83103185     0.07900
O771        O  0.96339833  0.76261319  0.36754907    -0.72600
O772        O  0.54016783  0.80117969  0.30191668    -0.72600
O773        O  0.96119264  0.76454490  0.30438330    -0.72700
O774        O  0.54282433  0.80064889  0.36483823    -0.72700
O775        O  0.53813272  0.74232940  0.36510720    -0.72700
O776        O  0.95969875  0.70803152  0.30008486    -0.72600
O777        O  0.53916839  0.74459071  0.30206675    -0.72600
O778        O  0.95856000  0.70443283  0.36302053    -0.72700
Ni779      Ni  0.00194919  0.78428590  0.33479027     1.25400
Ni780      Ni  0.99879129  0.72276231  0.33251175     1.25400
C781        C  0.94820126  0.72685662  0.37573755     0.89600
C782        C  0.55226833  0.77890507  0.29146147     0.89500
C783        C  0.94774647  0.73111187  0.29145169     0.89500
C784        C  0.55359703  0.77754307  0.37521422     0.89700
C785        C  0.80362519  0.65902955  0.14335679     0.05000
C786        C  0.78031057  0.67652973  0.14349256    -0.11200
C787        C  0.78372962  0.70193929  0.16775806     0.02500
C788        C  0.80969258  0.70866332  0.19254309    -0.09700
C789        C  0.83297753  0.69129229  0.19284774     0.04900
C790        C  0.82991660  0.66671518  0.16814258    -0.09100
H791        H  0.76001440  0.67098064  0.12446896     0.10500
H792        H  0.81199587  0.72776119  0.21157629     0.08100
H793        H  0.84906309  0.65463150  0.16771685     0.07900
C794        C  0.68829762  0.83502123  0.14080563     0.05000
C795        C  0.70637300  0.81238617  0.14036628    -0.11200
C796        C  0.69904617  0.78535936  0.16398307     0.02500
C797        C  0.67307399  0.78073088  0.18802340    -0.09700
C798        C  0.65537446  0.80372797  0.18909698     0.04900
C799        C  0.66297376  0.83060392  0.16526739    -0.09100
H800        H  0.72642122  0.81598406  0.12174927     0.10500
H801        H  0.66739271  0.75983711  0.20627650     0.08100
H802        H  0.65042874  0.84925152  0.16639649     0.07900
O803        O  0.75797524  0.79706493  0.69983430    -0.72600
O804        O  0.79770345  0.75677339  0.63587061    -0.72600
O805        O  0.76147840  0.79864025  0.63644616    -0.72700
O806        O  0.79653328  0.75760267  0.69924776    -0.72700
O807        O  0.73893826  0.70171406  0.69913613    -0.72700
O808        O  0.70372230  0.74326976  0.63339233    -0.72600
O809        O  0.73978494  0.70143239  0.63592430    -0.72600
O810        O  0.70051226  0.74132803  0.69677060    -0.72700
Ni811      Ni  0.78048750  0.77951937  0.66788612     1.25400
Ni812      Ni  0.71867385  0.71998007  0.66624647     1.25400
C813        C  0.72254598  0.77467315  0.70938154     0.89600
C814        C  0.77429866  0.72226666  0.62496273     0.89500
C815        C  0.72782036  0.77791109  0.62364508     0.89500
C816        C  0.77369198  0.72386099  0.71038503     0.89700
C817        C  0.81098073  0.64663812  0.52616553     0.05000
C818        C  0.83605948  0.66739539  0.50156226    -0.11200
C819        C  0.84240448  0.64774124  0.47702594     0.02500
C820        C  0.82326744  0.60666753  0.47756741    -0.09700
C821        C  0.79716565  0.58551110  0.50163427     0.04900
C822        C  0.79134009  0.60567642  0.52591074    -0.09100
H823        H  0.84947998  0.69882376  0.50103598     0.10500
H824        H  0.82816126  0.59100760  0.45907535     0.08100
H825        H  0.77135637  0.58940836  0.54461465     0.07900
C826        C  0.69579729  0.85475069  0.52380491     0.05000
C827        C  0.67077170  0.83434044  0.49878724    -0.11200
C828        C  0.66443105  0.85428572  0.47478599     0.02500
C829        C  0.68408037  0.89534696  0.47580595    -0.09700
C830        C  0.71004915  0.91632777  0.50039593     0.04900
C831        C  0.71533071  0.89572618  0.52448997    -0.09100
H832        H  0.65692445  0.80285583  0.49765580     0.10500
H833        H  0.67942240  0.91103310  0.45736324     0.08100
H834        H  0.73466720  0.91163512  0.54388033     0.07900
C835        C  0.73378390  0.52159293  0.49787485     0.25400
C836        C  0.77498329  0.54226420  0.50105871    -0.22700
C837        C  0.79471904  0.52143147  0.50404444     0.20300
C838        C  0.77359232  0.98054514  0.50406546     0.25400
C839        C  0.73232798  0.95973591  0.50066644    -0.22600
C840        C  0.71265072  0.98070062  0.49749168     0.20300
F841        F  0.67285455  0.96157264  0.49471435    -0.12600
F842        F  0.71407288  0.54110451  0.49478599    -0.15000
F843        F  0.79354668  0.96124402  0.50688219    -0.15000
F844        F  0.83444076  0.54075731  0.50747803    -0.12600
C845        C  0.75520967  0.67622738  0.57988879     0.25400
C846        C  0.78534311  0.70529968  0.59879612    -0.22700
C847        C  0.82461284  0.71614061  0.59277390     0.20300
C848        C  0.83327909  0.69735561  0.56894569     0.25400
C849        C  0.80280411  0.66752479  0.55092538    -0.22600
C850        C  0.76387460  0.65761110  0.55639323     0.20300
F851        F  0.73405677  0.63016661  0.53850750    -0.12600
F852        F  0.71699153  0.66590261  0.58378901    -0.15000
F853        F  0.87124330  0.70740879  0.56409137    -0.15000
F854        F  0.85436324  0.74382220  0.61051453    -0.12600
C855        C  0.67939758  0.78292868  0.58825638     0.25400
C856        C  0.71837501  0.79511316  0.59689689    -0.22700
C857        C  0.74947460  0.82546724  0.58005660     0.20300
C858        C  0.74187276  0.84433511  0.55626516     0.25400
C859        C  0.70309538  0.83338466  0.54849737    -0.22600
C860        C  0.67180890  0.80197783  0.56421998     0.20300
F861        F  0.63394513  0.79056207  0.55697669    -0.12600
F862        F  0.64873070  0.75354234  0.60363280    -0.15000
F863        F  0.77260773  0.87303098  0.54037695    -0.15000
F864        F  0.78759787  0.83682079  0.58627592    -0.12600
C865        C  0.72050188  0.70259433  0.16328305     0.25400
C866        C  0.76170898  0.72302456  0.16662728    -0.22700
C867        C  0.78202540  0.76402254  0.16893627     0.20300
C868        C  0.76158223  0.78416724  0.16774623     0.25400
C869        C  0.72042150  0.76373905  0.16457413    -0.22600
C870        C  0.69999880  0.72279505  0.16249516     0.20300
F871        F  0.66023941  0.70245743  0.15932655    -0.12600
F872        F  0.70005592  0.66303391  0.16146724    -0.15000
F873        F  0.78192390  0.82369042  0.17028080    -0.15000
F874        F  0.82182552  0.78465252  0.17186451    -0.12600
C875        C  0.92978472  0.72469704  0.43130770     0.25400
C876        C  0.91901068  0.71061867  0.40073677    -0.22700
C877        C  0.88228381  0.67712287  0.39499712     0.20300
C878        C  0.85684666  0.65740994  0.41961528     0.25400
C879        C  0.86833295  0.67014350  0.45061133    -0.22600
C880        C  0.90494185  0.70438955  0.45611626     0.20300
F881        F  0.91770792  0.71712695  0.48560819    -0.12600
F882        F  0.96550642  0.75666955  0.43732625    -0.15000
F883        F  0.82097889  0.62590545  0.41306762    -0.15000
F884        F  0.87129544  0.66325550  0.36546983    -0.12600
C885        C  0.89253779  0.68081765  0.25777100     0.25400
C886        C  0.91862321  0.72010986  0.26589235    -0.22700
C887        C  0.91662603  0.74955945  0.24934934     0.20300
C888        C  0.88888414  0.74000739  0.22571432     0.25400
C889        C  0.86231712  0.70083776  0.21800294    -0.22600
C890        C  0.86453301  0.67126986  0.23406118     0.20300
F891        F  0.83894709  0.63311375  0.22731468    -0.12600
F892        F  0.89342895  0.65162003  0.27321486    -0.15000
F893        F  0.88871233  0.76926990  0.20975069    -0.15000
F894        F  0.94216482  0.78791727  0.25548464    -0.12600
C895        C  0.61798140  0.79623771  0.27148279     0.25400
C896        C  0.58082791  0.79167171  0.26612966    -0.22700
C897        C  0.56884227  0.79298776  0.23562384     0.20300
C898        C  0.59318978  0.79727808  0.21051128     0.25400
C899        C  0.63012462  0.80079721  0.21568249    -0.22600
C900        C  0.64268620  0.80124885  0.24650110     0.20300
F901        F  0.67883354  0.80640841  0.25244000    -0.12600
F902        F  0.62994376  0.79502376  0.30092654    -0.15000
F903        F  0.57975891  0.79587217  0.18110264    -0.15000
F904        F  0.53251275  0.78757635  0.23006795    -0.12600
C905        C  0.62135932  0.82424571  0.39338477     0.25400
C906        C  0.58382181  0.79246682  0.39964145    -0.22700
C907        C  0.57344908  0.77964541  0.43032094     0.20300
C908        C  0.59979611  0.79945461  0.45475908     0.25400
C909        C  0.63724321  0.83204856  0.44872300    -0.22600
C910        C  0.64812824  0.84355127  0.41766146     0.20300
F911        F  0.68457756  0.87360939  0.41079780    -0.12600
F912        F  0.63168077  0.83712084  0.36375798    -0.15000
F913        F  0.58780298  0.78810378  0.48443479    -0.15000
F914        F  0.53682011  0.74964748  0.43680249    -0.12600
C915        C  0.83249864  0.73335125  0.78220041     0.25400
C916        C  0.82789600  0.69618851  0.78429482    -0.22700
C917        C  0.80215411  0.66647508  0.76355923     0.20300
C918        C  0.78267752  0.67455140  0.74000013     0.25400
C919        C  0.78869244  0.71232655  0.73720873    -0.22600
C920        C  0.81294500  0.74130206  0.75905047     0.20300
F921        F  0.81806012  0.77769114  0.75779253    -0.12600
F922        F  0.85608720  0.76206322  0.80265312    -0.15000
F923        F  0.75987689  0.64626922  0.71900826    -0.15000
F924        F  0.79731911  0.63025810  0.76529309    -0.12600
C925        C  0.51962083  0.73159339  0.82833129     0.25400
C926        C  0.53996869  0.77248965  0.83190167    -0.22700
C927        C  0.51818298  0.79130892  0.83562092     0.20300
C928        C  0.97694563  0.76970363  0.83547358     0.25400
C929        C  0.95678426  0.72889482  0.83203713    -0.22600
C930        C  0.97844343  0.71002355  0.82857143     0.20300
F931        F  0.95961305  0.67066064  0.82493835    -0.12600
F932        F  0.53965080  0.71238668  0.82523222    -0.15000
F933        F  0.95663463  0.78854365  0.83917397    -0.15000
F934        F  0.53683047  0.83070766  0.83881450    -0.12600
C935        C  0.65782897  0.76354622  0.77785157     0.25400
C936        C  0.66757482  0.80207097  0.78391419    -0.22700
C937        C  0.69776226  0.83252507  0.76660800     0.20300
C938        C  0.71682899  0.82424588  0.74274602     0.25400
C939        C  0.70588136  0.78539129  0.73595290    -0.22600
C940        C  0.67678314  0.75529457  0.75433496     0.20300
F941        F  0.66676827  0.71753235  0.74981153    -0.12600
F942        F  0.63013186  0.73373014  0.79507874    -0.15000
F943        F  0.74476615  0.85394642  0.72563103    -0.15000
F944        F  0.70777640  0.87009385  0.77209417    -0.12600
C945        C  0.66842561  0.86737806  0.10029508     0.25400
C946        C  0.69809229  0.86528905  0.11694445    -0.22700
C947        C  0.73762034  0.89284962  0.11109676     0.20300
C948        C  0.74750449  0.92115255  0.08840508     0.25400
C949        C  0.71803092  0.92261842  0.07083174    -0.22600
C950        C  0.67831584  0.89589412  0.07742099     0.20300
F951        F  0.64913889  0.89638917  0.06102140    -0.12600
F952        F  0.62991655  0.84100845  0.10545804    -0.15000
F953        F  0.78622290  0.94741129  0.08386915    -0.15000
F954        F  0.76686854  0.89281107  0.12779100    -0.12600
C955        C  0.79730379  0.62006010  0.06124730     0.25400
C956        C  0.79373445  0.58375884  0.06701252    -0.22700
C957        C  0.79531188  0.57292512  0.09776272     0.20300
C958        C  0.79882159  0.59745573  0.12260477     0.25400
C959        C  0.80143174  0.63357292  0.11699221    -0.22600
C960        C  0.80165561  0.64501634  0.08596712     0.20300
F961        F  0.80589331  0.68029822  0.07953470    -0.13200
F962        F  0.79562609  0.63089838  0.03161674    -0.15000
F963        F  0.79737542  0.58485234  0.15216226    -0.15000
F964        F  0.79059326  0.53735178  0.10381613    -0.12600
C965        C  0.72229871  0.92837489  0.90449633     0.25400
C966        C  0.70874168  0.91732830  0.93498895    -0.22700
C967        C  0.67526072  0.88074499  0.94027706     0.20300
C968        C  0.65555673  0.85531424  0.91534689     0.25400
C969        C  0.66821794  0.86671758  0.88449704    -0.22600
C970        C  0.70202131  0.90350861  0.87940662     0.20300
F971        F  0.71428020  0.91634830  0.85004387    -0.12600
F972        F  0.75363506  0.96437321  0.89885626    -0.15000
F973        F  0.62414500  0.81954518  0.92144795    -0.15000
F974        F  0.66131775  0.86994448  0.96962388    -0.12600
C975        C  0.84087949  0.59897989  0.88623898     0.25400
C976        C  0.83066238  0.62716224  0.87983019    -0.22700
C977        C  0.80096039  0.62784331  0.89746538     0.20300
C978        C  0.78301079  0.60169623  0.92206920     0.25400
C979        C  0.79469342  0.57469584  0.92937656    -0.22600
C980        C  0.82310345  0.57301052  0.91063371     0.20300
F981        F  0.83365912  0.54592098  0.91573921    -0.12600
F982        F  0.86800552  0.59638349  0.86863982    -0.15000
F983        F  0.75552245  0.60389065  0.93944081    -0.15000
F984        F  0.79047340  0.65482521  0.89167826    -0.12600
loop_ 
_geom_bond_atom_site_label_1 
_geom_bond_atom_site_label_2 
_geom_bond_distance 
_geom_bond_site_symmetry_2 
_ccdc_geom_bond_type 
O1           C11   1.284       .  A
O1         Ni255   1.931   1_556  S
O2           C12   1.284       .  A
O2           Ni9   1.932       .  S
O3           C13   1.276       .  A
O3         Ni255   1.890       .  S
O4           C14   1.276       .  A
O4           Ni9   1.889   1_556  S
O5           C14   1.286       .  A
O5         Ni256   1.938   1_556  S
O6           C13   1.287       .  A
O6          Ni10   1.939       .  S
O7           C12   1.276       .  A
O7         Ni256   1.902       .  S
O8           C11   1.276       .  A
O8          Ni10   1.901   1_556  S
Ni9         O247   1.931   1_544  S
Ni9         O249   1.890   1_545  S
Ni9        Ni256   2.388       .  S
Ni10        O251   1.938   1_554  S
Ni10        O253   1.902       .  S
Ni10       Ni255   2.388       .  S
C11         C228   1.467       .  S
C12         C218   1.468       .  S
C13         C211   1.482       .  S
C14         C241   1.479       .  S
C15         C198   1.482       .  S
C15          C16   1.405       .  A
C15          C20   1.401       .  A
C16          C17   1.404       .  A
C16          H21   1.085       .  S
C17         C188   1.488       .  S
C17          C18   1.406       .  A
C18          C19   1.409       .  A
C18          H22   1.083       .  S
C19         C231   1.489       .  S
C19          C20   1.406       .  A
C20          H23   1.082       .  S
C24         C178   1.473       .  S
C24          C25   1.406       .  A
C24          C29   1.399       .  A
C25          C26   1.402       .  A
C25          H30   1.084       .  S
C26         C191   1.482       .  S
C26          C27   1.403       .  A
C27          C28   1.407       .  A
C27          H31   1.084       .  S
C28         C238   1.478       .  S
C28          C29   1.401       .  A
C29          H32   1.084       .  S
O33          C43   1.284       .  A
O33         Ni41   1.931       .  S
O34          C44   1.282       .  A
O34        Ni533   1.927       .  S
O35          C45   1.278       .  A
O35         Ni41   1.898       .  S
O36          C46   1.276       .  A
O36        Ni533   1.898       .  S
O37          C46   1.283       .  A
O37        Ni534   1.929   1_455  S
O38          C45   1.284       .  A
O38         Ni42   1.929       .  S
O39          C44   1.277       .  A
O39        Ni534   1.903   1_455  S
O40          C43   1.277       .  A
O40         Ni42   1.901       .  S
Ni41        O526   1.927       .  S
Ni41        O528   1.898       .  S
Ni41        Ni42   2.390       .  S
Ni42        O529   1.929       .  S
Ni42        O531   1.903       .  S
C43         C138   1.468       .  S
C44         C158   1.464       .  S
C45         C148   1.481       .  S
C46         C168   1.463       .  S
C47         C221   1.488       .  S
C47          C48   1.410       .  A
C47          C52   1.404       .  A
C48          C49   1.405       .  A
C48          H53   1.083       .  S
C49         C128   1.486       .  S
C49          C50   1.402       .  A
C50          C51   1.404       .  A
C50          H54   1.085       .  S
C51         C151   1.481       .  S
C51          C52   1.401       .  A
C52          H55   1.084       .  S
C56         C208   1.481       .  S
C56          C57   1.406       .  A
C56          C61   1.401       .  A
C57          C58   1.403       .  A
C57          H62   1.084       .  S
C58         C131   1.481       .  S
C58          C59   1.402       .  A
C59          C60   1.407       .  A
C59          H63   1.084       .  S
C60         C161   1.483       .  S
C60          C61   1.403       .  A
C61          H64   1.083       .  S
O65          C75   1.288       .  A
O65         Ni73   1.946       .  S
O66          C76   1.288       .  A
O66         Ni73   1.947       .  S
O67          C77   1.274       .  A
O67         Ni73   1.885       .  S
O68          C78   1.274       .  A
O68         Ni73   1.884       .  S
O69          C78   1.286       .  A
O69         Ni74   1.940       .  S
O70          C77   1.287       .  A
O70         Ni74   1.941       .  S
O71          C76   1.275       .  A
O71         Ni74   1.886       .  S
O72          C75   1.275       .  A
O72         Ni74   1.889       .  S
Ni73        Ni74   2.385       .  S
C75         C201   1.484       .  S
C76         C108   1.484       .  S
C77         C118   1.481       .  S
C78         C181   1.472       .  S
C79         C111   1.480       .  S
C79          C80   1.401       .  A
C79          C84   1.405       .  A
C80          C81   1.406       .  A
C80          H85   1.083       .  S
C81         C141   1.489       .  S
C81          C82   1.410       .  A
C82          C83   1.404       .  A
C82          H86   1.084       .  S
C83          C98   1.482       .  S
C83          C84   1.401       .  A
C84          H87   1.085       .  S
C88         C121   1.480       .  S
C88          C89   1.399       .  A
C88          C93   1.406       .  A
C89          C90   1.402       .  A
C89          H94   1.084       .  S
C90         C171   1.484       .  S
C90          C91   1.409       .  A
C91          C92   1.406       .  A
C91          H95   1.083       .  S
C92         C101   1.488       .  S
C92          C93   1.403       .  A
C93          H96   1.084       .  S
C97          C98   1.406       .  A
C97         C348   1.402   1_545  A
C97         F104   1.358       .  S
C98          C99   1.404       .  A
C99         C346   1.401   1_545  A
C99         F106   1.358       .  S
C100        C101   1.409       .  A
C100        C345   1.401       .  A
C100        F105   1.358       .  S
C101        C102   1.407       .  A
C102        C343   1.402       .  A
C102        F103   1.358       .  S
C107        C108   1.413       .  A
C107        C112   1.391       .  A
C107        F114   1.359       .  S
C108        C109   1.407       .  A
C109        C110   1.406       .  A
C109        F116   1.357       .  S
C110        C111   1.409       .  A
C110        F115   1.358       .  S
C111        C112   1.400       .  A
C112        F113   1.359       .  S
C117        C118   1.406       .  A
C117        C122   1.403       .  A
C117        F124   1.357       .  S
C118        C119   1.413       .  A
C119        C120   1.391       .  A
C119        F126   1.359       .  S
C120        C121   1.401       .  A
C120        F125   1.359       .  S
C121        C122   1.410       .  A
C122        F123   1.358       .  S
C127        C128   1.407       .  A
C127        C132   1.403       .  A
C127        F134   1.358       .  S
C128        C129   1.408       .  A
C129        C130   1.399       .  A
C129        F136   1.358       .  S
C130        C131   1.405       .  A
C130        F135   1.358       .  S
C131        C132   1.406       .  A
C132        F133   1.357       .  S
C137        C138   1.401       .  A
C137        C142   1.400       .  A
C137        F144   1.358       .  S
C138        C139   1.403       .  A
C139        C140   1.398       .  A
C139        F146   1.358       .  S
C140        C141   1.410       .  A
C140        F145   1.358       .  S
C141        C142   1.412       .  A
C142        F143   1.358       .  S
C147        C148   1.408       .  A
C147        C152   1.402       .  A
C147        F154   1.358       .  S
C148        C149   1.411       .  A
C149        C150   1.393       .  A
C149        F156   1.358       .  S
C150        C151   1.403       .  A
C150        F155   1.358       .  S
C151        C152   1.408       .  A
C152        F153   1.358       .  S
C157        C158   1.402       .  A
C157        C162   1.397       .  A
C157        F164   1.358       .  S
C158        C159   1.402       .  A
C159        C160   1.399       .  A
C159        F166   1.358       .  S
C160        C161   1.409       .  A
C160        F165   1.358       .  S
C161        C162   1.409       .  A
C162        F163   1.358       .  S
C167        C168   1.403       .  A
C167        C172   1.397       .  A
C167        F174   1.358       .  S
C168        C169   1.400       .  A
C169        C170   1.398       .  A
C169        F176   1.358       .  S
C170        C171   1.411       .  A
C170        F175   1.358       .  S
C171        C172   1.408       .  A
C172        F173   1.358       .  S
C177        C178   1.400       .  A
C177        C182   1.390       .  A
C177        F184   1.358       .  S
C178        C179   1.409       .  A
C179        C180   1.403       .  A
C179        F186   1.358       .  S
C180        C181   1.404       .  A
C180        F185   1.357       .  S
C181        C182   1.409       .  A
C182        F183   1.359       .  S
C187        C188   1.409       .  A
C187        C684   1.400   1_455  A
C187        F194   1.358       .  S
C188        C189   1.408       .  A
C189        C682   1.402   1_455  A
C189        F196   1.358       .  S
C190        C191   1.406       .  A
C190        C681   1.402       .  A
C190        F195   1.358       .  S
C191        C192   1.404       .  A
C192        C679   1.400       .  A
C192        F193   1.358       .  S
C197        C198   1.401       .  A
C197        C202   1.392       .  A
C197        F204   1.359       .  S
C198        C199   1.410       .  A
C199        C200   1.406       .  A
C199        F206   1.358       .  S
C200        C201   1.407       .  A
C200        F205   1.357       .  S
C201        C202   1.412       .  A
C202        F203   1.359       .  S
C207        C208   1.409       .  A
C207        C212   1.404       .  A
C207        F214   1.358       .  S
C208        C209   1.402       .  A
C209        C210   1.392       .  A
C209        F216   1.358       .  S
C210        C211   1.412       .  A
C210        F215   1.359       .  S
C211        C212   1.407       .  A
C212        F213   1.357       .  S
C217        C218   1.403       .  A
C217        C222   1.399       .  A
C217        F224   1.358       .  S
C218        C219   1.402       .  A
C219        C220   1.400       .  A
C219        F226   1.358       .  S
C220        C221   1.411       .  A
C220        F225   1.358       .  S
C221        C222   1.409       .  A
C222        F223   1.358       .  S
C227        C228   1.402       .  A
C227        C232   1.399       .  A
C227        F234   1.358       .  S
C228        C229   1.402       .  A
C229        C230   1.399       .  A
C229        F236   1.358       .  S
C230        C231   1.411       .  A
C230        F235   1.358       .  S
C231        C232   1.411       .  A
C232        F233   1.358       .  S
C237        C238   1.401       .  A
C237        C242   1.392       .  A
C237        F244   1.358       .  S
C238        C239   1.410       .  A
C239        C240   1.403       .  A
C239        F246   1.358       .  S
C240        C241   1.406       .  A
C240        F245   1.357       .  S
C241        C242   1.411       .  A
C242        F243   1.359       .  S
O247        C257   1.284       .  A
O248        C258   1.284       .  A
O248       Ni255   1.932       .  S
O249        C259   1.276       .  A
O250        C260   1.276       .  A
O250       Ni255   1.889   1_556  S
O251        C260   1.286       .  A
O252        C259   1.287       .  A
O252       Ni256   1.939   1_565  S
O253        C258   1.276       .  A
O254        C257   1.276       .  A
O254       Ni256   1.901   1_566  S
C257        C474   1.467       .  S
C258        C464   1.468       .  S
C259        C457   1.482       .  S
C260        C487   1.479       .  S
C261        C444   1.482       .  S
C261        C262   1.405       .  A
C261        C266   1.401       .  A
C262        C263   1.404       .  A
C262        H267   1.085       .  S
C263        C434   1.488       .  S
C263        C264   1.406       .  A
C264        C265   1.409       .  A
C264        H268   1.084       .  S
C265        C477   1.489       .  S
C265        C266   1.406       .  A
C266        H269   1.083       .  S
C270        C424   1.473       .  S
C270        C271   1.406       .  A
C270        C275   1.399       .  A
C271        C272   1.402       .  A
C271        H276   1.084       .  S
C272        C437   1.482       .  S
C272        C273   1.402       .  A
C273        C274   1.407       .  A
C273        H277   1.084       .  S
C274        C484   1.478       .  S
C274        C275   1.401       .  A
C275        H278   1.084       .  S
O279        C289   1.284       .  A
O279       Ni287   1.931       .  S
O280        C290   1.282       .  A
O280       Ni779   1.927       .  S
O281        C291   1.278       .  A
O281       Ni287   1.898       .  S
O282        C292   1.276       .  A
O282       Ni779   1.898       .  S
O283        C292   1.283       .  A
O283       Ni780   1.929   1_455  S
O284        C291   1.284       .  A
O284       Ni288   1.929       .  S
O285        C290   1.277       .  A
O285       Ni780   1.903   1_455  S
O286        C289   1.277       .  A
O286       Ni288   1.901       .  S
Ni287       O772   1.927       .  S
Ni287       O774   1.898       .  S
Ni287      Ni288   2.390       .  S
Ni288       O775   1.929       .  S
Ni288       O777   1.903       .  S
C289        C384   1.468       .  S
C290        C404   1.464       .  S
C291        C394   1.481       .  S
C292        C414   1.463       .  S
C293        C467   1.488       .  S
C293        C294   1.410       .  A
C293        C298   1.404       .  A
C294        C295   1.405       .  A
C294        H299   1.083       .  S
C295        C374   1.486       .  S
C295        C296   1.402       .  A
C296        C297   1.404       .  A
C296        H300   1.084       .  S
C297        C397   1.481       .  S
C297        C298   1.401       .  A
C298        H301   1.083       .  S
C302        C454   1.481       .  S
C302        C303   1.406       .  A
C302        C307   1.401       .  A
C303        C304   1.403       .  A
C303        H308   1.084       .  S
C304        C377   1.481       .  S
C304        C305   1.402       .  A
C305        C306   1.407       .  A
C305        H309   1.084       .  S
C306        C407   1.483       .  S
C306        C307   1.403       .  A
C307        H310   1.083       .  S
O311        C321   1.288       .  A
O311       Ni319   1.946       .  S
O312        C322   1.288       .  A
O312       Ni319   1.947       .  S
O313        C323   1.274       .  A
O313       Ni319   1.885       .  S
O314        C324   1.274       .  A
O314       Ni319   1.884       .  S
O315        C324   1.286       .  A
O315       Ni320   1.940       .  S
O316        C323   1.287       .  A
O316       Ni320   1.941       .  S
O317        C322   1.275       .  A
O317       Ni320   1.886       .  S
O318        C321   1.275       .  A
O318       Ni320   1.889       .  S
Ni319      Ni320   2.385       .  S
C321        C447   1.484       .  S
C322        C354   1.484       .  S
C323        C364   1.481       .  S
C324        C427   1.472       .  S
C325        C357   1.480       .  S
C325        C326   1.401       .  A
C325        C330   1.405       .  A
C326        C327   1.406       .  A
C326        H331   1.083       .  S
C327        C387   1.489       .  S
C327        C328   1.410       .  A
C328        C329   1.404       .  A
C328        H332   1.084       .  S
C329        C344   1.482       .  S
C329        C330   1.401       .  A
C330        H333   1.085       .  S
C334        C367   1.480       .  S
C334        C335   1.399       .  A
C334        C339   1.406       .  A
C335        C336   1.402       .  A
C335        H340   1.084       .  S
C336        C417   1.484       .  S
C336        C337   1.409       .  A
C337        C338   1.406       .  A
C337        H341   1.083       .  S
C338        C347   1.488       .  S
C338        C339   1.403       .  A
C339        H342   1.084       .  S
C343        C344   1.406       .  A
C343        F350   1.358       .  S
C344        C345   1.404       .  A
C345        F352   1.358       .  S
C346        C347   1.409       .  A
C346        F351   1.358       .  S
C347        C348   1.407       .  A
C348        F349   1.358       .  S
C353        C354   1.413       .  A
C353        C358   1.391       .  A
C353        F360   1.359       .  S
C354        C355   1.407       .  A
C355        C356   1.406       .  A
C355        F362   1.357       .  S
C356        C357   1.409       .  A
C356        F361   1.358       .  S
C357        C358   1.400       .  A
C358        F359   1.359       .  S
C363        C364   1.406       .  A
C363        C368   1.403       .  A
C363        F370   1.357       .  S
C364        C365   1.413       .  A
C365        C366   1.391       .  A
C365        F372   1.359       .  S
C366        C367   1.401       .  A
C366        F371   1.359       .  S
C367        C368   1.410       .  A
C368        F369   1.358       .  S
C373        C374   1.407       .  A
C373        C378   1.403       .  A
C373        F380   1.358       .  S
C374        C375   1.408       .  A
C375        C376   1.399       .  A
C375        F382   1.358       .  S
C376        C377   1.405       .  A
C376        F381   1.358       .  S
C377        C378   1.406       .  A
C378        F379   1.357       .  S
C383        C384   1.401       .  A
C383        C388   1.400       .  A
C383        F390   1.358       .  S
C384        C385   1.403       .  A
C385        C386   1.398       .  A
C385        F392   1.358       .  S
C386        C387   1.410       .  A
C386        F391   1.358       .  S
C387        C388   1.412       .  A
C388        F389   1.358       .  S
C393        C394   1.408       .  A
C393        C398   1.402       .  A
C393        F400   1.358       .  S
C394        C395   1.411       .  A
C395        C396   1.393       .  A
C395        F402   1.358       .  S
C396        C397   1.403       .  A
C396        F401   1.358       .  S
C397        C398   1.408       .  A
C398        F399   1.358       .  S
C403        C404   1.402       .  A
C403        C408   1.397       .  A
C403        F410   1.358       .  S
C404        C405   1.402       .  A
C405        C406   1.399       .  A
C405        F412   1.358       .  S
C406        C407   1.409       .  A
C406        F411   1.358       .  S
C407        C408   1.409       .  A
C408        F409   1.358       .  S
C413        C414   1.403       .  A
C413        C418   1.397       .  A
C413        F420   1.358       .  S
C414        C415   1.400       .  A
C415        C416   1.398       .  A
C415        F422   1.358       .  S
C416        C417   1.411       .  A
C416        F421   1.358       .  S
C417        C418   1.408       .  A
C418        F419   1.358       .  S
C423        C424   1.400       .  A
C423        C428   1.390       .  A
C423        F430   1.358       .  S
C424        C425   1.409       .  A
C425        C426   1.403       .  A
C425        F432   1.358       .  S
C426        C427   1.404       .  A
C426        F431   1.357       .  S
C427        C428   1.409       .  A
C428        F429   1.359       .  S
C433        C434   1.409       .  A
C433        C930   1.400   1_455  A
C433        F440   1.358       .  S
C434        C435   1.408       .  A
C435        C928   1.402   1_455  A
C435        F442   1.358       .  S
C436        C927   1.402       .  A
C436        C437   1.406       .  A
C436        F441   1.358       .  S
C437        C438   1.404       .  A
C438        C925   1.400       .  A
C438        F439   1.358       .  S
C443        C444   1.401       .  A
C443        C448   1.392       .  A
C443        F450   1.359       .  S
C444        C445   1.410       .  A
C445        C446   1.406       .  A
C445        F452   1.358       .  S
C446        C447   1.407       .  A
C446        F451   1.357       .  S
C447        C448   1.412       .  A
C448        F449   1.359       .  S
C453        C454   1.409       .  A
C453        C458   1.404       .  A
C453        F460   1.358       .  S
C454        C455   1.402       .  A
C455        C456   1.392       .  A
C455        F462   1.358       .  S
C456        C457   1.412       .  A
C456        F461   1.359       .  S
C457        C458   1.407       .  A
C458        F459   1.357       .  S
C463        C464   1.403       .  A
C463        C468   1.399       .  A
C463        F470   1.358       .  S
C464        C465   1.402       .  A
C465        C466   1.400       .  A
C465        F472   1.358       .  S
C466        C467   1.411       .  A
C466        F471   1.358       .  S
C467        C468   1.409       .  A
C468        F469   1.358       .  S
C473        C474   1.402       .  A
C473        C478   1.399       .  A
C473        F480   1.358       .  S
C474        C475   1.402       .  A
C475        C476   1.399       .  A
C475        F482   1.358       .  S
C476        C477   1.411       .  A
C476        F481   1.358       .  S
C477        C478   1.411       .  A
C478        F479   1.358       .  S
C483        C484   1.401       .  A
C483        C488   1.392       .  A
C483        F490   1.358       .  S
C484        C485   1.410       .  A
C485        C486   1.403       .  A
C485        F492   1.358       .  S
C486        C487   1.406       .  A
C486        F491   1.357       .  S
C487        C488   1.411       .  A
C488        F489   1.359       .  S
O493        C503   1.284       .  A
O493       Ni747   1.931   1_556  S
O494        C504   1.284       .  A
O494       Ni501   1.932       .  S
O495        C505   1.276       .  A
O495       Ni747   1.890       .  S
O496        C506   1.276       .  A
O496       Ni501   1.889   1_556  S
O497        C506   1.286       .  A
O497       Ni748   1.938   1_556  S
O498        C505   1.287       .  A
O498       Ni502   1.939       .  S
O499        C504   1.276       .  A
O499       Ni748   1.902       .  S
O500        C503   1.276       .  A
O500       Ni502   1.901   1_556  S
Ni501       O739   1.931   1_544  S
Ni501       O741   1.890   1_545  S
Ni501      Ni748   2.388       .  S
Ni502       O743   1.938   1_554  S
Ni502       O745   1.902       .  S
Ni502      Ni747   2.388       .  S
C503        C720   1.467       .  S
C504        C710   1.468       .  S
C505        C703   1.482       .  S
C506        C733   1.479       .  S
C507        C690   1.482       .  S
C507        C508   1.405       .  A
C507        C512   1.401       .  A
C508        C509   1.404       .  A
C508        H513   1.085       .  S
C509        C680   1.488       .  S
C509        C510   1.406       .  A
C510        C511   1.409       .  A
C510        H514   1.083       .  S
C511        C723   1.489       .  S
C511        C512   1.406       .  A
C512        H515   1.082       .  S
C516        C670   1.473       .  S
C516        C517   1.406       .  A
C516        C521   1.399       .  A
C517        C518   1.402       .  A
C517        H522   1.084       .  S
C518        C683   1.482       .  S
C518        C519   1.403       .  A
C519        C520   1.407       .  A
C519        H523   1.084       .  S
C520        C730   1.478       .  S
C520        C521   1.401       .  A
C521        H524   1.084       .  S
O525        C535   1.284       .  A
O525       Ni533   1.931   1_655  S
O526        C536   1.282       .  A
O527        C537   1.278       .  A
O527       Ni533   1.898   1_655  S
O528        C538   1.276       .  A
O529        C538   1.283       .  A
O530        C537   1.284       .  A
O530       Ni534   1.929       .  S
O531        C536   1.277       .  A
O532        C535   1.277       .  A
O532       Ni534   1.901       .  S
Ni533      Ni534   2.390   1_455  S
C535        C630   1.468       .  S
C536        C650   1.464       .  S
C537        C640   1.481       .  S
C538        C660   1.463       .  S
C539        C713   1.488       .  S
C539        C540   1.410       .  A
C539        C544   1.404       .  A
C540        C541   1.405       .  A
C540        H545   1.083       .  S
C541        C620   1.486       .  S
C541        C542   1.402       .  A
C542        C543   1.404       .  A
C542        H546   1.085       .  S
C543        C643   1.481       .  S
C543        C544   1.401       .  A
C544        H547   1.084       .  S
C548        C700   1.481       .  S
C548        C549   1.406       .  A
C548        C553   1.401       .  A
C549        C550   1.403       .  A
C549        H554   1.084       .  S
C550        C623   1.481       .  S
C550        C551   1.402       .  A
C551        C552   1.407       .  A
C551        H555   1.084       .  S
C552        C653   1.483       .  S
C552        C553   1.403       .  A
C553        H556   1.083       .  S
O557        C567   1.288       .  A
O557       Ni565   1.946       .  S
O558        C568   1.288       .  A
O558       Ni565   1.947       .  S
O559        C569   1.274       .  A
O559       Ni565   1.885       .  S
O560        C570   1.274       .  A
O560       Ni565   1.884       .  S
O561        C570   1.286       .  A
O561       Ni566   1.940       .  S
O562        C569   1.287       .  A
O562       Ni566   1.941       .  S
O563        C568   1.275       .  A
O563       Ni566   1.886       .  S
O564        C567   1.275       .  A
O564       Ni566   1.889       .  S
Ni565      Ni566   2.385       .  S
C567        C693   1.484       .  S
C568        C600   1.484       .  S
C569        C610   1.481       .  S
C570        C673   1.472       .  S
C571        C603   1.480       .  S
C571        C572   1.401       .  A
C571        C576   1.405       .  A
C572        C573   1.406       .  A
C572        H577   1.083       .  S
C573        C633   1.489       .  S
C573        C574   1.410       .  A
C574        C575   1.404       .  A
C574        H578   1.084       .  S
C575        C590   1.482       .  S
C575        C576   1.401       .  A
C576        H579   1.085       .  S
C580        C613   1.480       .  S
C580        C581   1.399       .  A
C580        C585   1.406       .  A
C581        C582   1.402       .  A
C581        H586   1.084       .  S
C582        C663   1.484       .  S
C582        C583   1.409       .  A
C583        C584   1.406       .  A
C583        H587   1.083       .  S
C584        C593   1.488       .  S
C584        C585   1.403       .  A
C585        H588   1.084       .  S
C589        C590   1.406       .  A
C589        C840   1.402   1_545  A
C589        F596   1.358       .  S
C590        C591   1.404       .  A
C591        C838   1.401   1_545  A
C591        F598   1.358       .  S
C592        C837   1.401       .  A
C592        C593   1.409       .  A
C592        F597   1.358       .  S
C593        C594   1.407       .  A
C594        C835   1.402       .  A
C594        F595   1.358       .  S
C599        C600   1.413       .  A
C599        C604   1.391       .  A
C599        F606   1.359       .  S
C600        C601   1.407       .  A
C601        C602   1.406       .  A
C601        F608   1.357       .  S
C602        C603   1.409       .  A
C602        F607   1.358       .  S
C603        C604   1.400       .  A
C604        F605   1.359       .  S
C609        C610   1.406       .  A
C609        C614   1.403       .  A
C609        F616   1.357       .  S
C610        C611   1.413       .  A
C611        C612   1.391       .  A
C611        F618   1.359       .  S
C612        C613   1.401       .  A
C612        F617   1.359       .  S
C613        C614   1.410       .  A
C614        F615   1.358       .  S
C619        C620   1.407       .  A
C619        C624   1.403       .  A
C619        F626   1.358       .  S
C620        C621   1.408       .  A
C621        C622   1.399       .  A
C621        F628   1.358       .  S
C622        C623   1.405       .  A
C622        F627   1.358       .  S
C623        C624   1.406       .  A
C624        F625   1.357       .  S
C629        C630   1.401       .  A
C629        C634   1.400       .  A
C629        F636   1.358       .  S
C630        C631   1.403       .  A
C631        C632   1.398       .  A
C631        F638   1.358       .  S
C632        C633   1.410       .  A
C632        F637   1.358       .  S
C633        C634   1.412       .  A
C634        F635   1.358       .  S
C639        C640   1.408       .  A
C639        C644   1.402       .  A
C639        F646   1.358       .  S
C640        C641   1.410       .  A
C641        C642   1.393       .  A
C641        F648   1.358       .  S
C642        C643   1.403       .  A
C642        F647   1.358       .  S
C643        C644   1.408       .  A
C644        F645   1.358       .  S
C649        C650   1.402       .  A
C649        C654   1.397       .  A
C649        F656   1.358       .  S
C650        C651   1.402       .  A
C651        C652   1.399       .  A
C651        F658   1.358       .  S
C652        C653   1.409       .  A
C652        F657   1.358       .  S
C653        C654   1.409       .  A
C654        F655   1.358       .  S
C659        C660   1.403       .  A
C659        C664   1.397       .  A
C659        F666   1.358       .  S
C660        C661   1.400       .  A
C661        C662   1.398       .  A
C661        F668   1.358       .  S
C662        C663   1.411       .  A
C662        F667   1.358       .  S
C663        C664   1.408       .  A
C664        F665   1.358       .  S
C669        C670   1.400       .  A
C669        C674   1.390       .  A
C669        F676   1.358       .  S
C670        C671   1.409       .  A
C671        C672   1.403       .  A
C671        F678   1.358       .  S
C672        C673   1.404       .  A
C672        F677   1.357       .  S
C673        C674   1.409       .  A
C674        F675   1.359       .  S
C679        C680   1.409       .  A
C679        F686   1.358       .  S
C680        C681   1.408       .  A
C681        F688   1.358       .  S
C682        C683   1.406       .  A
C682        F687   1.358       .  S
C683        C684   1.404       .  A
C684        F685   1.358       .  S
C689        C690   1.401       .  A
C689        C694   1.392       .  A
C689        F696   1.359       .  S
C690        C691   1.410       .  A
C691        C692   1.406       .  A
C691        F698   1.358       .  S
C692        C693   1.407       .  A
C692        F697   1.357       .  S
C693        C694   1.412       .  A
C694        F695   1.359       .  S
C699        C700   1.409       .  A
C699        C704   1.404       .  A
C699        F706   1.358       .  S
C700        C701   1.402       .  A
C701        C702   1.392       .  A
C701        F708   1.358       .  S
C702        C703   1.412       .  A
C702        F707   1.359       .  S
C703        C704   1.407       .  A
C704        F705   1.357       .  S
C709        C710   1.403       .  A
C709        C714   1.399       .  A
C709        F716   1.358       .  S
C710        C711   1.402       .  A
C711        C712   1.400       .  A
C711        F718   1.358       .  S
C712        C713   1.411       .  A
C712        F717   1.358       .  S
C713        C714   1.409       .  A
C714        F715   1.358       .  S
C719        C720   1.402       .  A
C719        C724   1.399       .  A
C719        F726   1.358       .  S
C720        C721   1.402       .  A
C721        C722   1.399       .  A
C721        F728   1.358       .  S
C722        C723   1.411       .  A
C722        F727   1.358       .  S
C723        C724   1.411       .  A
C724        F725   1.358       .  S
C729        C730   1.401       .  A
C729        C734   1.392       .  A
C729        F736   1.358       .  S
C730        C731   1.410       .  A
C731        C732   1.403       .  A
C731        F738   1.358       .  S
C732        C733   1.406       .  A
C732        F737   1.357       .  S
C733        C734   1.411       .  A
C734        F735   1.359       .  S
O739        C749   1.284       .  A
O740        C750   1.284       .  A
O740       Ni747   1.932       .  S
O741        C751   1.276       .  A
O742        C752   1.276       .  A
O742       Ni747   1.889   1_556  S
O743        C752   1.286       .  A
O744        C751   1.287       .  A
O744       Ni748   1.939   1_565  S
O745        C750   1.276       .  A
O746        C749   1.276       .  A
O746       Ni748   1.901   1_566  S
C749        C966   1.467       .  S
C750        C956   1.468       .  S
C751        C949   1.482       .  S
C752        C979   1.479       .  S
C753        C936   1.482       .  S
C753        C754   1.405       .  A
C753        C758   1.401       .  A
C754        C755   1.404       .  A
C754        H759   1.085       .  S
C755        C926   1.488       .  S
C755        C756   1.406       .  A
C756        C757   1.409       .  A
C756        H760   1.084       .  S
C757        C969   1.489       .  S
C757        C758   1.406       .  A
C758        H761   1.083       .  S
C762        C916   1.473       .  S
C762        C763   1.406       .  A
C762        C767   1.399       .  A
C763        C764   1.402       .  A
C763        H768   1.084       .  S
C764        C929   1.482       .  S
C764        C765   1.403       .  A
C765        C766   1.407       .  A
C765        H769   1.084       .  S
C766        C976   1.478       .  S
C766        C767   1.401       .  A
C767        H770   1.084       .  S
O771        C781   1.284       .  A
O771       Ni779   1.931   1_655  S
O772        C782   1.282       .  A
O773        C783   1.278       .  A
O773       Ni779   1.898   1_655  S
O774        C784   1.276       .  A
O775        C784   1.283       .  A
O776        C783   1.284       .  A
O776       Ni780   1.929       .  S
O777        C782   1.277       .  A
O778        C781   1.277       .  A
O778       Ni780   1.901       .  S
Ni779      Ni780   2.390   1_455  S
C781        C876   1.468       .  S
C782        C896   1.464       .  S
C783        C886   1.481       .  S
C784        C906   1.463       .  S
C785        C959   1.488       .  S
C785        C786   1.410       .  A
C785        C790   1.404       .  A
C786        C787   1.405       .  A
C786        H791   1.083       .  S
C787        C866   1.486       .  S
C787        C788   1.402       .  A
C788        C789   1.404       .  A
C788        H792   1.085       .  S
C789        C889   1.481       .  S
C789        C790   1.401       .  A
C790        H793   1.084       .  S
C794        C946   1.481       .  S
C794        C795   1.406       .  A
C794        C799   1.401       .  A
C795        C796   1.403       .  A
C795        H800   1.084       .  S
C796        C869   1.481       .  S
C796        C797   1.402       .  A
C797        C798   1.407       .  A
C797        H801   1.084       .  S
C798        C899   1.483       .  S
C798        C799   1.403       .  A
C799        H802   1.083       .  S
O803        C813   1.288       .  A
O803       Ni811   1.946       .  S
O804        C814   1.288       .  A
O804       Ni811   1.947       .  S
O805        C815   1.274       .  A
O805       Ni811   1.885       .  S
O806        C816   1.274       .  A
O806       Ni811   1.884       .  S
O807        C816   1.286       .  A
O807       Ni812   1.940       .  S
O808        C815   1.287       .  A
O808       Ni812   1.941       .  S
O809        C814   1.275       .  A
O809       Ni812   1.886       .  S
O810        C813   1.275       .  A
O810       Ni812   1.889       .  S
Ni811      Ni812   2.385       .  S
C813        C939   1.484       .  S
C814        C846   1.484       .  S
C815        C856   1.481       .  S
C816        C919   1.472       .  S
C817        C849   1.480       .  S
C817        C818   1.401       .  A
C817        C822   1.405       .  A
C818        C819   1.406       .  A
C818        H823   1.083       .  S
C819        C879   1.489       .  S
C819        C820   1.410       .  A
C820        C821   1.404       .  A
C820        H824   1.084       .  S
C821        C836   1.482       .  S
C821        C822   1.401       .  A
C822        H825   1.085       .  S
C826        C859   1.480       .  S
C826        C827   1.399       .  A
C826        C831   1.406       .  A
C827        C828   1.402       .  A
C827        H832   1.084       .  S
C828        C909   1.484       .  S
C828        C829   1.409       .  A
C829        C830   1.406       .  A
C829        H833   1.083       .  S
C830        C839   1.488       .  S
C830        C831   1.403       .  A
C831        H834   1.084       .  S
C835        C836   1.406       .  A
C835        F842   1.358       .  S
C836        C837   1.404       .  A
C837        F844   1.358       .  S
C838        C839   1.409       .  A
C838        F843   1.358       .  S
C839        C840   1.407       .  A
C840        F841   1.358       .  S
C845        C846   1.413       .  A
C845        C850   1.391       .  A
C845        F852   1.359       .  S
C846        C847   1.407       .  A
C847        C848   1.406       .  A
C847        F854   1.357       .  S
C848        C849   1.409       .  A
C848        F853   1.358       .  S
C849        C850   1.400       .  A
C850        F851   1.359       .  S
C855        C856   1.406       .  A
C855        C860   1.403       .  A
C855        F862   1.357       .  S
C856        C857   1.413       .  A
C857        C858   1.391       .  A
C857        F864   1.359       .  S
C858        C859   1.401       .  A
C858        F863   1.359       .  S
C859        C860   1.410       .  A
C860        F861   1.358       .  S
C865        C866   1.407       .  A
C865        C870   1.403       .  A
C865        F872   1.358       .  S
C866        C867   1.408       .  A
C867        C868   1.399       .  A
C867        F874   1.358       .  S
C868        C869   1.405       .  A
C868        F873   1.358       .  S
C869        C870   1.406       .  A
C870        F871   1.357       .  S
C875        C876   1.401       .  A
C875        C880   1.400       .  A
C875        F882   1.358       .  S
C876        C877   1.403       .  A
C877        C878   1.398       .  A
C877        F884   1.358       .  S
C878        C879   1.410       .  A
C878        F883   1.358       .  S
C879        C880   1.412       .  A
C880        F881   1.358       .  S
C885        C886   1.408       .  A
C885        C890   1.402       .  A
C885        F892   1.358       .  S
C886        C887   1.411       .  A
C887        C888   1.393       .  A
C887        F894   1.358       .  S
C888        C889   1.403       .  A
C888        F893   1.358       .  S
C889        C890   1.408       .  A
C890        F891   1.358       .  S
C895        C896   1.402       .  A
C895        C900   1.397       .  A
C895        F902   1.358       .  S
C896        C897   1.402       .  A
C897        C898   1.399       .  A
C897        F904   1.358       .  S
C898        C899   1.409       .  A
C898        F903   1.358       .  S
C899        C900   1.409       .  A
C900        F901   1.358       .  S
C905        C906   1.403       .  A
C905        C910   1.397       .  A
C905        F912   1.358       .  S
C906        C907   1.400       .  A
C907        C908   1.398       .  A
C907        F914   1.358       .  S
C908        C909   1.411       .  A
C908        F913   1.358       .  S
C909        C910   1.408       .  A
C910        F911   1.358       .  S
C915        C916   1.400       .  A
C915        C920   1.390       .  A
C915        F922   1.358       .  S
C916        C917   1.409       .  A
C917        C918   1.403       .  A
C917        F924   1.358       .  S
C918        C919   1.404       .  A
C918        F923   1.357       .  S
C919        C920   1.409       .  A
C920        F921   1.359       .  S
C925        C926   1.409       .  A
C925        F932   1.358       .  S
C926        C927   1.408       .  A
C927        F934   1.358       .  S
C928        C929   1.406       .  A
C928        F933   1.358       .  S
C929        C930   1.404       .  A
C930        F931   1.358       .  S
C935        C936   1.401       .  A
C935        C940   1.392       .  A
C935        F942   1.359       .  S
C936        C937   1.410       .  A
C937        C938   1.406       .  A
C937        F944   1.358       .  S
C938        C939   1.407       .  A
C938        F943   1.357       .  S
C939        C940   1.412       .  A
C940        F941   1.359       .  S
C945        C946   1.409       .  A
C945        C950   1.404       .  A
C945        F952   1.358       .  S
C946        C947   1.402       .  A
C947        C948   1.392       .  A
C947        F954   1.358       .  S
C948        C949   1.412       .  A
C948        F953   1.359       .  S
C949        C950   1.407       .  A
C950        F951   1.357       .  S
C955        C956   1.403       .  A
C955        C960   1.399       .  A
C955        F962   1.358       .  S
C956        C957   1.402       .  A
C957        C958   1.400       .  A
C957        F964   1.358       .  S
C958        C959   1.411       .  A
C958        F963   1.358       .  S
C959        C960   1.409       .  A
C960        F961   1.358       .  S
C965        C966   1.402       .  A
C965        C970   1.399       .  A
C965        F972   1.358       .  S
C966        C967   1.402       .  A
C967        C968   1.399       .  A
C967        F974   1.358       .  S
C968        C969   1.411       .  A
C968        F973   1.358       .  S
C969        C970   1.411       .  A
C970        F971   1.358       .  S
C975        C976   1.401       .  A
C975        C980   1.392       .  A
C975        F982   1.358       .  S
C976        C977   1.410       .  A
C977        C978   1.403       .  A
C977        F984   1.358       .  S
C978        C979   1.406       .  A
C978        F983   1.357       .  S
C979        C980   1.411       .  A
C980        F981   1.359       .  S
