geometry optimzed in LAMMPS
_audit_creation_date              2020-12-01 
_audit_creation_method            'lammps2cif' 
_symmetry_space_group_name_H-M    'P1' 
_symmetry_Int_Tables_number       1 
_symmetry_cell_setting            triclinic 
loop_ 
_symmetry_equiv_pos_as_xyz 
  x,y,z 
_cell_length_a                    47.6108569 
_cell_length_b                    47.47067970921797 
_cell_length_c                    36.494335458204674 
_cell_angle_alpha                 90.07131896127962 
_cell_angle_beta                  90.03550644853242 
_cell_angle_gamma                 120.74146548056483 
loop_ 
_atom_site_label 
_atom_site_type_symbol 
_atom_site_fract_x 
_atom_site_fract_y 
_atom_site_fract_z 
_atom_site_charge 
C1          C  0.98816483  0.49892333  0.25669677     0.80700
N2          N  0.02195342  0.99485922  0.33297136    -0.77600
C3          C  0.02548804  0.02401129  0.34212138     0.83200
N4          N  0.50192093  0.04802780  0.31166159    -0.77500
C5          C  0.48565120  0.52978202  0.29946830     0.83300
N6          N  0.47866000  0.50477803  0.27671815    -0.79200
C7          C  0.15250608  0.34759130  0.19431450     0.80700
N8          N  0.18561088  0.36456424  0.19474899    -0.77600
C9          C  0.20219251  0.34834099  0.19514969     0.83200
N10         N  0.18563725  0.31520071  0.19466962    -0.77500
C11         C  0.15262040  0.29825376  0.19320438     0.83300
N12         N  0.13593503  0.31437683  0.19346042    -0.79200
C13         C  0.35013760  0.32378890  0.13854851     0.03600
C14         C  0.34097356  0.29275367  0.15435164    -0.12500
C15         C  0.34614542  0.26914512  0.13547989     0.01100
C16         C  0.35746348  0.27586855  0.09920355    -0.11000
C17         C  0.36677715  0.30616836  0.08298293     0.03600
C18         C  0.36485581  0.33027859  0.10378766    -0.10500
H19         H  0.33079737  0.28741726  0.18172241     0.09200
H20         H  0.36062628  0.25806017  0.08397988     0.06700
H21         H  0.37383348  0.35358000  0.09328242     0.06600
Zn22       Zn  0.08973588  0.37965263  0.23645927     1.49700
Zn23       Zn  0.04670744  0.38414517  0.17770985     1.49400
Zn24       Zn  0.10888448  0.45280165  0.21651556     1.49100
Zn25       Zn  0.12108924  0.41281218  0.15802195     1.49500
O26         O  0.09183541  0.40826621  0.19725810    -1.83600
O27         O  0.04353106  0.34937502  0.25741521    -0.74300
O28         O  0.03338000  0.41656959  0.17483930    -0.74100
O29         O  0.12626745  0.45669526  0.27061546    -0.73600
O30         O  0.01239098  0.34848470  0.21195598    -0.74300
O31         O  0.11659661  0.40621483  0.27929459    -0.73900
O32         O  0.06820680  0.45606361  0.21362351    -0.74500
O33         O  0.15273720  0.46068839  0.14125670    -0.73800
O34         O  0.04217672  0.36512512  0.12685503    -0.74600
O35         O  0.14588437  0.48993505  0.18388213    -0.74000
O36         O  0.09477297  0.38712944  0.11395399    -0.74500
O37         O  0.14471932  0.39020823  0.17497001    -0.74400
O38         O  0.11064527  0.35506244  0.21721650    -0.74200
C39         C  0.01526771  0.33917325  0.24378785     0.77600
C40         C  0.04151157  0.44119719  0.19525884     0.78100
C41         C  0.12849635  0.43557796  0.29044081     0.77100
C42         C  0.15989838  0.48852934  0.15451353     0.77500
C43         C  0.06475245  0.36931652  0.10497194     0.78600
C44         C  0.13492445  0.36513619  0.19548780     0.77600
C45         C  0.19815773  0.02201928  0.13063545     0.03600
C46         C  0.19421482  0.02570631  0.09299594    -0.12500
C47         C  0.21588799  0.05511735  0.07452899     0.01100
C48         C  0.24309927  0.08013819  0.09308645    -0.11000
C49         C  0.24835054  0.07692369  0.13015605     0.03600
C50         C  0.22529194  0.04787528  0.14891154    -0.10500
H51         H  0.15633356  0.50476432  0.08395690     0.09200
H52         H  0.25955834  0.10271242  0.07887039     0.06700
H53         H  0.22836875  0.04523855  0.17787580     0.06600
C54         C  0.48740863  0.31826460  0.27357458     0.03600
C55         C  0.48283097  0.33017612  0.30742183    -0.12500
C56         C  0.45251388  0.31317950  0.32592561     0.01100
C57         C  0.42703936  0.28395427  0.31085708    -0.11000
C58         C  0.43109876  0.27092691  0.27831614     0.03600
C59         C  0.46127059  0.28841279  0.25950955    -0.10500
H60         H  0.50255731  0.35262105  0.31906510     0.09200
H61         H  0.40399397  0.27055352  0.32537637     0.06700
H62         H  0.46419678  0.27911413  0.23354782     0.06600
Zn63       Zn  0.30090436  0.12862497  0.22688821     1.49700
Zn64       Zn  0.33469427  0.20650881  0.22819802     1.49400
Zn65       Zn  0.37868283  0.17163564  0.22984024     1.49100
Zn66       Zn  0.34228840  0.17181773  0.15437282     1.49500
O67         O  0.33920561  0.16969690  0.20887424    -1.83600
O68         O  0.26690386  0.13699083  0.25288326    -0.74300
O69         O  0.37527059  0.23752095  0.25934435    -0.74100
O70         O  0.36710024  0.12962676  0.25901160    -0.73600
O71         O  0.28848964  0.19095489  0.24920592    -0.74300
O72         O  0.31354269  0.09703348  0.25097871    -0.73900
O73         O  0.40772652  0.21651864  0.25417902    -0.74500
O74         O  0.38452218  0.16941102  0.13869133    -0.73800
O75         O  0.33756206  0.23684962  0.18863674    -0.74600
O76         O  0.40800154  0.17005712  0.19145438    -0.74000
O77         O  0.34498320  0.21663494  0.13708954    -0.74500
O78         O  0.29950764  0.12970725  0.13402728    -0.74400
O79         O  0.27543950  0.10233276  0.18492383    -0.74200
C80         C  0.26433237  0.16247364  0.25653182     0.77600
C81         C  0.40315373  0.23986250  0.26342914     0.78100
C82         C  0.34111427  0.10131795  0.26131298     0.77100
C83         C  0.40747431  0.16863175  0.15674480     0.77500
C84         C  0.34223842  0.23894816  0.15432948     0.78600
C85         C  0.27616091  0.10454891  0.15037646     0.77600
Zn86       Zn  0.29916277  0.36218293  0.20746096     1.49700
Zn87       Zn  0.35916604  0.42324422  0.16625441     1.49400
Zn88       Zn  0.29935491  0.43281947  0.19081042     1.49100
Zn89       Zn  0.33899533  0.42605632  0.24989714     1.49500
O90         O  0.32294889  0.40995641  0.20149865    -1.83600
O91         O  0.31691242  0.33846719  0.17514729    -0.74300
O92         O  0.34609316  0.43909074  0.11838568    -0.74100
O93         O  0.25255379  0.39772565  0.19715019    -0.73600
O94         O  0.36273526  0.38027261  0.15238048    -0.74300
O95         O  0.25251546  0.35015775  0.19735333    -0.73900
O96         O  0.30416861  0.44394947  0.13721465    -0.74500
O97         O  0.34204053  0.46971217  0.26334073    -0.73800
O98         O  0.39690649  0.46371908  0.19614091    -0.74600
O99         O  0.31273936  0.47610621  0.22103976    -0.74000
O100        O  0.38194771  0.43217023  0.24369960    -0.74500
O101        O  0.31829341  0.39403196  0.29013822    -0.74400
O102        O  0.30035847  0.34730511  0.26032617    -0.74200
C103        C  0.34325699  0.34894885  0.15663339     0.77600
C104        C  0.32316103  0.44519684  0.11190616     0.78100
C105        C  0.23773009  0.36640275  0.19660254     0.77100
C106        C  0.33069246  0.48667068  0.24972944     0.77500
C107        C  0.39774200  0.46065164  0.23101646     0.78600
C108        C  0.30721344  0.36346445  0.29017416     0.77600
C109        C  0.33869634  0.01860524  0.27238371     0.03600
C110        C  0.35488833  0.02510177  0.30671538    -0.12500
C111        C  0.36508081  0.05449638  0.32564346     0.01100
C112        C  0.35962663  0.07831386  0.31035917    -0.11000
C113        C  0.34362511  0.07331136  0.27670307     0.03600
C114        C  0.33277991  0.04304123  0.25771329    -0.10500
H115        H  0.35917271  0.00699735  0.31935765     0.09200
H116        H  0.36764900  0.10101044  0.32518769     0.06700
H117        H  0.32096952  0.03910657  0.23129590     0.06600
C118        C  0.18352460  0.16359647  0.26636276     0.03600
C119        C  0.17322439  0.14789186  0.30106491    -0.12500
C120        C  0.19171319  0.13672666  0.31998008     0.01100
C121        C  0.22121622  0.14237271  0.30415230    -0.11000
C122        C  0.23285565  0.15857077  0.27085214     0.03600
C123        C  0.21363937  0.16889144  0.25163465    -0.10500
H124        H  0.15028184  0.14328100  0.31257849     0.09200
H125        H  0.23604427  0.13440560  0.31812693     0.06700
H126        H  0.22177479  0.18048090  0.22512338     0.06600
Zn127      Zn  0.10992822  0.15024884  0.18501647     1.49700
Zn128      Zn  0.04528031  0.15484178  0.21847638     1.49400
Zn129      Zn  0.11993494  0.20434429  0.23622930     1.49100
Zn130      Zn  0.08572495  0.19962084  0.15770733     1.49500
O131        O  0.08955098  0.17641330  0.19826019    -1.83600
O132        O  0.08051421  0.10752482  0.21163469    -0.74300
O133        O  0.04295689  0.18061802  0.26243397    -0.74100
O134        O  0.14886396  0.18721551  0.25972721    -0.73600
O135        O  0.04508467  0.11671072  0.24232376    -0.74300
O136        O  0.15305251  0.16106743  0.21202520    -0.73900
O137        O  0.09551877  0.21137599  0.27669077    -0.74500
O138        O  0.10993666  0.24707223  0.17304574    -0.73800
O139        O  0.00735812  0.14784144  0.18199514    -0.74600
O140        O  0.14595924  0.24866529  0.21395289    -0.74000
O141        O  0.03817264  0.18454847  0.14026275    -0.74500
O142        O  0.10984983  0.19381156  0.11621267    -0.74400
O143        O  0.12029279  0.15403991  0.12813497    -0.74200
C144        C  0.06330868  0.10419150  0.24016678     0.77600
C145        C  0.06558492  0.20112186  0.28361724     0.78100
C146        C  0.16122910  0.17161672  0.24478486     0.77100
C147        C  0.13525874  0.26276940  0.19324833     0.77500
C148        C  0.00979652  0.16378476  0.15256360     0.78600
C149        C  0.12157514  0.17603470  0.10645761     0.77600
C150        C  0.48367276  0.16027763  0.13966239     0.03600
C151        C  0.46004035  0.16539745  0.15759760    -0.12500
C152        C  0.43371250  0.16491581  0.13783350     0.01100
C153        C  0.43142368  0.15888444  0.09994957    -0.11000
C154        C  0.45376755  0.15285416  0.08174457     0.03600
C155        C  0.47984257  0.15386532  0.10156850    -0.10500
H156        H  0.46252268  0.17033059  0.18676099     0.09200
H157        H  0.41099379  0.15701706  0.08469374     0.06700
H158        H  0.99267986  0.14543507  0.08092407     0.06600
C159        C  0.43871898  0.99203331  0.07147636     0.80700
N160        N  0.03059300  0.04024898  0.05385684    -0.77600
C161        C  0.01522887  0.00856780  0.06507281     0.83200
N162        N  0.96835476  0.46635885  0.07073567    -0.77500
C163        C  0.43544343  0.43955625  0.07446118     0.83300
N164        N  0.41624831  0.45298940  0.07355294    -0.79200
Zn165      Zn  0.15794187  0.03886178  0.46641041     1.49700
Zn166      Zn  0.14938185  0.10184124  0.43198540     1.49400
Zn167      Zn  0.20786379  0.11315628  0.98657529     1.49100
Zn168      Zn  0.20343401  0.08248070  0.40855773     1.49500
O169        O  0.17753731  0.08417828  0.44821784    -1.83600
O170        O  0.12728764  0.01814695  0.98462587    -0.74300
O171        O  0.15482260  0.14244886  0.46230841    -0.74100
O172        O  0.21294436  0.09042903  0.03087225    -0.73600
O173        O  0.10403955  0.06573915  0.44890342    -0.74300
O174        O  0.19477811  0.03888699  0.01400330    -0.73900
O175        O  0.19102199  0.14360854  0.00514260    -0.74500
O176        O  0.24981634  0.10690544  0.42589515    -0.73800
O177        O  0.15867962  0.11652322  0.37614849    -0.74600
O178        O  0.24917072  0.13967689  0.46979897    -0.74000
O179        O  0.19967486  0.10758391  0.36729192    -0.74500
O180        O  0.19148440  0.03657067  0.38833661    -0.74400
O181        O  0.15867270  0.00396385  0.43162732    -0.74200
C182        C  0.09585382  0.04137942  0.47049026     0.77600
C183        C  0.16744370  0.14718627  0.99452997     0.78100
C184        C  0.20782645  0.06181354  0.03764467     0.77100
C185        C  0.26430789  0.13092319  0.44809583     0.77500
C186        C  0.18222563  0.11919159  0.35627073     0.78600
C187        C  0.17369603  0.00775996  0.40132935     0.77600
C188        C  0.16029565  0.17090458  0.01476878     0.03600
C189        C  0.14568019  0.16243424  0.05015535    -0.12500
C190        C  0.13790362  0.18349023  0.06947943     0.01100
C191        C  0.14581360  0.21367248  0.05335257    -0.11000
C192        C  0.16085750  0.22358496  0.01920276     0.03600
C193        C  0.16784670  0.20181214  0.99959680    -0.10500
H194        H  0.13975917  0.13921431  0.06222629     0.09200
H195        H  0.14030727  0.23029525  0.06767287     0.06700
H196        H  0.17957084  0.21583467  0.47108189     0.06600
C197        C  0.02240505  0.19448897  0.37399780     0.03600
C198        C  0.02785020  0.18911215  0.33728633    -0.12500
C199        C  0.05751105  0.21049570  0.31927821     0.01100
C200        C  0.08198353  0.23803058  0.33811282    -0.11000
C201        C  0.07783761  0.24409906  0.37467809     0.03600
C202        C  0.04762040  0.22230908  0.39236399    -0.10500
H203        H  0.51106194  0.15680661  0.33250619     0.09200
H204        H  0.10517593  0.25390116  0.32478912     0.06700
H205        H  0.04421589  0.22618005  0.42087638     0.06600
Zn206      Zn  0.36656388  0.07045881  0.44233464     1.49700
Zn207      Zn  0.43809701  0.08593938  0.41503968     1.49400
Zn208      Zn  0.43623432  0.14367480  0.45898097     1.49100
Zn209      Zn  0.41980725  0.08074871  0.99638599     1.49500
O210        O  0.41291989  0.09619537  0.45125409    -1.83600
O211        O  0.36031797  0.06003779  0.38886309    -0.74300
O212        O  0.48090092  0.12950952  0.39756642    -0.74100
O213        O  0.39935732  0.15184741  0.44994091    -0.73600
O214        O  0.40793220  0.06714572  0.36909714    -0.74300
O215        O  0.35243642  0.10266835  0.44993276    -0.73900
O216        O  0.47718731  0.16962911  0.42437515    -0.74500
O217        O  0.43230784  0.10821530  0.04108299    -0.73800
O218        O  0.44634344  0.05238841  0.44480432    -0.74600
O219        O  0.44993962  0.15664309  0.01593681    -0.74000
O220        O  0.46133727  0.09329604  0.97110674    -0.74500
O221        O  0.37928506  0.03375452  0.01051212    -0.74400
O222        O  0.33954197  0.02729787  0.47344295    -0.74200
C223        C  0.37843291  0.05999346  0.36325692     0.77600
C224        C  0.49209231  0.16033215  0.40258463     0.78100
C225        C  0.36806967  0.13395546  0.44958411     0.77100
C226        C  0.44551552  0.13891749  0.04417953     0.77500
C227        C  0.45285328  0.06243693  0.47790027     0.78600
C228        C  0.34920756  0.01670531  0.00036630     0.77600
C229        C  0.02081004  0.32776223  0.01474673     0.03600
C230        C  0.02703738  0.34219422  0.05030995    -0.12500
C231        C  0.05679785  0.35261140  0.06878818     0.01100
C232        C  0.08045335  0.34784067  0.05241393    -0.11000
C233        C  0.07553156  0.33299928  0.01834755     0.03600
C234        C  0.04551626  0.32275759  0.99911883    -0.10500
H235        H  0.50942754  0.34091347  0.07096526     0.09200
H236        H  0.10334983  0.35567068  0.06656412     0.06700
H237        H  0.04318618  0.31489648  0.47470477     0.06600
Zn238      Zn  0.17397369  0.33678983  0.39879765     1.49700
Zn239      Zn  0.13272017  0.29730729  0.47055761     1.49400
Zn240      Zn  0.21097058  0.33293983  0.47458856     1.49100
Zn241      Zn  0.17728293  0.37674990  0.47305476     1.49500
O242        O  0.17395446  0.33609736  0.45342120    -1.83600
O243        O  0.13136574  0.29424708  0.37907888    -0.74300
O244        O  0.14004937  0.25701884  0.99703759    -0.69900
O245        O  0.23874204  0.33234949  0.43477253    -0.73600
O246        O  0.10419062  0.27051464  0.42989312    -0.74300
O247        O  0.21706071  0.33664269  0.38250854    -0.73900
O248        O  0.19417665  0.28076680  0.00031086    -0.74500
O249        O  0.22053884  0.40277141  0.99904541    -0.73800
O250        O  0.10077218  0.30369501  0.99596211    -0.74600
O251        O  0.24274849  0.37151102  0.00523158    -0.74000
O252        O  0.13163394  0.35807664  0.00049176    -0.74500
O253        O  0.17434297  0.40381524  0.43304996    -0.74400
O254        O  0.17105358  0.37834436  0.38082108    -0.74200
C255        C  0.10596758  0.27126729  0.39532670     0.77600
C256        C  0.16554042  0.25539724  0.00416731     0.78100
C257        C  0.23923469  0.33407251  0.40015122     0.77100
C258        C  0.24471803  0.39952982  0.00825388     0.77500
C259        C  0.10391574  0.33138783  0.00353290     0.78600
C260        C  0.17093367  0.40185415  0.39849493     0.77600
Zn261      Zn  0.36412267  0.29542845  0.46386841     1.49700
Zn262      Zn  0.41849905  0.35164009  0.41500231     1.49400
Zn263      Zn  0.44081781  0.33641014  0.99625704     1.49100
Zn264      Zn  0.43358838  0.29493057  0.44144736     1.49500
O265        O  0.41107001  0.31810521  0.45385946    -1.83600
O266        O  0.33650401  0.30920227  0.43055429    -0.74300
O267        O  0.43810488  0.39451112  0.44602585    -0.74100
O268        O  0.41048976  0.33084505  0.03965636    -0.73600
O269        O  0.37454666  0.34511548  0.39307762    -0.74300
O270        O  0.36069567  0.29648875  0.01825789    -0.73900
O271        O  0.46971360  0.37550480  0.96689071    -0.74500
O272        O  0.47881774  0.30772449  0.46785063    -0.73800
O273        O  0.44373627  0.34590350  0.37059327    -0.74600
O274        O  0.47227176  0.32520855  0.01802391    -0.74000
O275        O  0.44246206  0.30013037  0.38802346    -0.74500
O276        O  0.39813056  0.24894609  0.44990837    -0.74400
O277        O  0.35100755  0.24925642  0.45473998    -0.74200
C278        C  0.34450616  0.32861160  0.40299366     0.77600
C279        C  0.44876608  0.39082139  0.47661275     0.78100
C280        C  0.37986961  0.31223283  0.04483518     0.77100
C281        C  0.49024985  0.31672024  0.00184491     0.77500
C282        C  0.44718734  0.32124133  0.36365026     0.78600
C283        C  0.36697866  0.23443367  0.45238009     0.77600
C284        C  0.31881320  0.33261078  0.38233195     0.03600
C285        C  0.32360172  0.34264492  0.34512256    -0.12500
C286        C  0.30020612  0.34705849  0.32602112     0.01100
C287        C  0.27228805  0.34237027  0.34397137    -0.11000
C288        C  0.26712355  0.33403715  0.38095154     0.03600
C289        C  0.29019626  0.32843571  0.39989202    -0.10500
H290        H  0.34580652  0.34775025  0.33119882     0.09200
H291        H  0.25550491  0.34746606  0.32941102     0.06700
H292        H  0.28654915  0.32203327  0.42866898     0.06600
C293        C  0.32462715  0.48540081  0.01960705     0.03600
C294        C  0.33347054  0.48062755  0.05531645    -0.12500
C295        C  0.31531331  0.45044725  0.07390299     0.01100
C296        C  0.28686415  0.42497221  0.05766040    -0.11000
C297        C  0.27566607  0.42863271  0.02349292     0.03600
C298        C  0.29475113  0.45916475  0.00443704    -0.10500
H299        H  0.35512179  0.99843476  0.06963863     0.09200
H300        H  0.27276987  0.40204430  0.07232813     0.06700
H301        H  0.29121370  0.46646735  0.47700250     0.06600
C302        C  0.16258355  0.47782837  0.38342046     0.03600
C303        C  0.15058134  0.47227901  0.34705426    -0.12500
C304        C  0.14472164  0.44405101  0.32741973     0.01100
C305        C  0.15277354  0.42209151  0.34410339    -0.11000
C306        C  0.16524766  0.42703766  0.37997161     0.03600
C307        C  0.16948775  0.45491058  0.39956740    -0.10500
H308        H  0.15828688  0.99180357  0.32913531     0.09200
H309        H  0.14846174  0.40038659  0.32941972     0.06700
H310        H  0.17850203  0.45907202  0.42748238     0.06600
C311        C  0.34945458  0.15028081  0.44922947     0.80700
N312        N  0.36558783  0.18322215  0.45108544    -0.77600
C313        C  0.34895549  0.19915756  0.45197855     0.83200
N314        N  0.31589730  0.18216703  0.45139655    -0.77500
C315        C  0.29963240  0.14908387  0.44891217     0.83300
N316        N  0.31635281  0.13301664  0.44770837    -0.79200
C317        C  0.45943099  0.39717407  0.03332429    -0.01300
C318        C  0.44317301  0.39646991  0.00004751     0.08300
C319        C  0.41174112  0.39296747  0.00230303    -0.01500
C320        C  0.39933987  0.39369146  0.03689590    -0.01500
C321        C  0.42070787  0.40432751  0.06708132     0.08500
C322        C  0.44419825  0.39513273  0.06694358    -0.01700
Br323      Br  0.96111709  0.40171339  0.11493930    -0.00200
Br324      Br  0.50311948  0.40404009  0.03445529    -0.00300
Br325      Br  0.35348914  0.37828792  0.04377685    -0.00200
Br326      Br  0.37520310  0.37971688  0.47725849    -0.00200
C327        C  0.45791815  0.05697725  0.02770794    -0.01300
C328        C  0.44801673  0.04293973  0.99218599     0.08300
C329        C  0.42359689  0.00729331  0.51104941    -0.01500
C330        C  0.40724485  0.99262738  0.02080188    -0.01500
C331        C  0.42046259  0.00612238  0.05551655     0.08500
C332        C  0.43869365  0.04032438  0.05812646    -0.01700
Br333      Br  0.45046099  0.06010085  0.10596913    -0.00200
Br334      Br  0.49913884  0.09743203  0.03511890    -0.00300
Br335      Br  0.37693276  0.45380020  0.51202311    -0.00200
Br336      Br  0.40179664  0.98384155  0.46692516    -0.00200
C337        C  0.03590208  0.00897200  0.48125455    -0.01300
C338        C  0.08217981  0.01235735  0.01404650     0.08300
C339        C  0.09134778  0.02966325  0.04769205    -0.01500
C340        C  0.06916349  0.01825006  0.07706101    -0.01500
C341        C  0.03653526  0.99444396  0.06936218     0.08500
C342        C  0.03178296  0.97105221  0.04244609    -0.01700
Br343      Br  0.96319561  0.47604005  0.98259035    -0.00200
Br344      Br  0.02882202  0.99866348  0.42976030    -0.00300
Br345      Br  0.07870445  0.04316861  0.12164916    -0.00200
Br346      Br  0.13326581  0.06932443  0.05309843    -0.00200
C347        C  0.45145134  0.54654813  0.27154671    -0.01300
C348        C  0.45920963  0.53668874  0.30432078     0.08300
C349        C  0.43333350  0.50895822  0.32050991    -0.01500
C350        C  0.41151729  0.48317216  0.29701347    -0.01500
C351        C  0.41283509  0.48883853  0.25802784     0.08500
C352        C  0.42964505  0.52214502  0.24675415    -0.01700
Br353      Br  0.42315776  0.53500242  0.19937390    -0.00200
Br354      Br  0.47713126  0.59177960  0.25806768    -0.00300
Br355      Br  0.38491801  0.44095563  0.31984835    -0.00200
Br356      Br  0.43751077  0.02112709  0.36225711    -0.00200
C357        C  0.06073182  0.08282741  0.34090069    -0.01300
C358        C  0.05856435  0.05275851  0.33699782     0.08300
C359        C  0.07584558  0.04981527  0.30727685    -0.01500
C360        C  0.07604612  0.06470342  0.27384279    -0.01500
C361        C  0.06709590  0.08893576  0.27415008     0.08500
C362        C  0.06478052  0.10110087  0.30919259    -0.01700
Br363      Br  0.07013975  0.14327123  0.31598683    -0.00200
Br364      Br  0.54556233  0.08687024  0.38345228    -0.00300
Br365      Br  0.08679970  0.05030314  0.22949682    -0.00200
Br366      Br  0.09347929  0.02137657  0.31138528    -0.00200
C367        C  0.99393987  0.48374267  0.19524933    -0.01300
C368        C  0.97974490  0.47333792  0.23002840     0.08300
C369        C  0.97554295  0.44440385  0.24500474    -0.01500
C370        C  0.99599234  0.43346369  0.23295039    -0.01500
C371        C  0.01643101  0.44881527  0.20269686     0.08500
C372        C  0.01297612  0.47141271  0.18140268    -0.01700
Br373      Br  0.03653746  0.48717466  0.13612412    -0.00200
Br374      Br  0.99235037  0.51887311  0.17101463    -0.00300
Br375      Br  0.99978149  0.40150991  0.26137904    -0.00200
Br376      Br  0.45244428  0.41771024  0.29077332    -0.00200
C377        C  0.99486873  0.46429845  0.83198160     0.80700
N378        N  0.01729560  0.00261909  0.80141977    -0.77600
C379        C  0.02882603  0.03391105  0.81192832     0.83200
N380        N  0.49661636  0.04481509  0.80121137    -0.77500
C381        C  0.48364106  0.54072065  0.77648159     0.83300
N382        N  0.47606155  0.51731544  0.75089824    -0.79200
C383        C  0.15411778  0.34969830  0.69267945     0.80700
N384        N  0.18715466  0.36672815  0.69412469    -0.77600
C385        C  0.20363247  0.35049165  0.69634398     0.83200
N386        N  0.18713137  0.31734590  0.69678148    -0.77500
C387        C  0.15420243  0.30047994  0.69441955     0.83300
N388        N  0.13761767  0.31658337  0.69273480    -0.79200
C389        C  0.34575320  0.32193680  0.64016854     0.03600
C390        C  0.33505579  0.29035960  0.65543305    -0.12500
C391        C  0.33847002  0.26597872  0.63583958     0.01100
C392        C  0.34944588  0.27267366  0.59941573    -0.11000
C393        C  0.36021602  0.30361618  0.58396052     0.03600
C394        C  0.36020175  0.32820841  0.60536328    -0.10500
H395        H  0.32516629  0.28522261  0.68293358     0.09200
H396        H  0.35152581  0.25447195  0.58362614     0.06700
H397        H  0.37100358  0.35217121  0.59464561     0.06600
Zn398      Zn  0.09178658  0.38037052  0.73638529     1.49700
Zn399      Zn  0.04910251  0.39069885  0.68078487     1.49400
Zn400      Zn  0.11666140  0.45537231  0.71906189     1.49100
Zn401      Zn  0.12353611  0.41562810  0.65901515     1.49500
O402        O  0.09495151  0.41085035  0.69859895    -1.83600
O403        O  0.04401289  0.34953621  0.75631293    -0.74300
O404        O  0.03808627  0.42494346  0.69303746    -0.74100
O405        O  0.13981696  0.45802402  0.76822861    -0.73600
O406        O  0.01407235  0.35186378  0.71137919    -0.74300
O407        O  0.12159660  0.40545935  0.77957041    -0.73900
O408        O  0.07738379  0.45718233  0.73278555    -0.74500
O409        O  0.15526072  0.46310934  0.64164730    -0.73800
O410        O  0.04437762  0.37577951  0.62626193    -0.74600
O411        O  0.14947928  0.49287340  0.68443319    -0.74000
O412        O  0.09608836  0.39038463  0.61634258    -0.74500
O413        O  0.14714967  0.39304236  0.67477204    -0.74400
O414        O  0.11114949  0.35563914  0.71400343    -0.74200
C415        C  0.01595490  0.34068334  0.74245232     0.77600
C416        C  0.04731931  0.43989890  0.72378835     0.78100
C417        C  0.13841729  0.43560942  0.78896009     0.77100
C418        C  0.16268205  0.49107286  0.65466078     0.77500
C419        C  0.06643493  0.37622074  0.60578025     0.78600
C420        C  0.13639463  0.36691916  0.69360275     0.77600
C421        C  0.18442466  0.01791650  0.63186310     0.03600
C422        C  0.17955507  0.02239775  0.59465166    -0.12500
C423        C  0.20125766  0.05186003  0.57624974     0.01100
C424        C  0.22937148  0.07617343  0.59453602    -0.11000
C425        C  0.23549017  0.07248032  0.63119771     0.03600
C426        C  0.21233067  0.04332106  0.64990022    -0.10500
H427        H  0.15824307  0.50694127  0.58429317     0.09200
H428        H  0.24613237  0.09867509  0.58039867     0.06700
H429        H  0.21611898  0.04011791  0.67849679     0.06600
C430        C  0.48457710  0.31539344  0.76725093     0.03600
C431        C  0.48201777  0.32539654  0.80299012    -0.12500
C432        C  0.45275498  0.30802544  0.82296020     0.01100
C433        C  0.42607137  0.27981974  0.80790965    -0.11000
C434        C  0.42777159  0.26834204  0.77322312     0.03600
C435        C  0.45713157  0.28655197  0.75258280    -0.10500
H436        H  0.50246894  0.34715796  0.81490194     0.09200
H437        H  0.40380744  0.26626293  0.82377563     0.06700
H438        H  0.45851080  0.27848895  0.72521940     0.06600
Zn439      Zn  0.29267074  0.12457462  0.72643554     1.49700
Zn440      Zn  0.32771465  0.20342883  0.72834094     1.49400
Zn441      Zn  0.37063109  0.16807628  0.72798310     1.49100
Zn442      Zn  0.33218801  0.16720957  0.65335248     1.49500
O443        O  0.33069769  0.16589936  0.70798872    -1.83600
O444        O  0.25981844  0.13360738  0.75384710    -0.74300
O445        O  0.37063799  0.23555863  0.75695428    -0.74100
O446        O  0.35993823  0.12674654  0.75771013    -0.73600
O447        O  0.28163510  0.18773374  0.75121746    -0.74300
O448        O  0.30637222  0.09357671  0.75022773    -0.73900
O449        O  0.40180293  0.21337841  0.75008986    -0.74500
O450        O  0.37478129  0.16521789  0.63674522    -0.73800
O451        O  0.32963692  0.23335508  0.68875168    -0.74600
O452        O  0.39870930  0.16601210  0.68922310    -0.74000
O453        O  0.33546910  0.21254126  0.63672374    -0.74500
O454        O  0.28782014  0.12486414  0.63415251    -0.74400
O455        O  0.26504717  0.09740368  0.68539049    -0.74200
C456        C  0.25744280  0.15911944  0.75844069     0.77600
C457        C  0.39852920  0.23749805  0.75926821     0.78100
C458        C  0.33417867  0.09831311  0.76037021     0.77100
C459        C  0.39814323  0.16492383  0.65459084     0.77500
C460        C  0.33370555  0.23528231  0.65432515     0.78600
C461        C  0.26457794  0.09974901  0.65088342     0.77600
Zn462      Zn  0.29920731  0.36329680  0.71087812     1.49700
Zn463      Zn  0.35774798  0.42197367  0.66603610     1.49400
Zn464      Zn  0.30068990  0.43435228  0.69127496     1.49100
Zn465      Zn  0.34048822  0.42762278  0.75222054     1.49500
O466        O  0.32344108  0.41080048  0.70371930    -1.83600
O467        O  0.31521826  0.33835576  0.67865073    -0.74300
O468        O  0.34531631  0.43770764  0.61811226    -0.74100
O469        O  0.25390754  0.39978819  0.69773335    -0.73600
O470        O  0.36041961  0.37885164  0.65325435    -0.74300
O471        O  0.25341287  0.35203751  0.70050472    -0.73900
O472        O  0.30565051  0.44582632  0.63722699    -0.74500
O473        O  0.34077119  0.46981356  0.76571297    -0.73800
O474        O  0.39623212  0.46341356  0.69099670    -0.74600
O475        O  0.31416819  0.47757462  0.72116606    -0.74000
O476        O  0.38399678  0.43698128  0.74256357    -0.74500
O477        O  0.32395554  0.39573495  0.79360544    -0.74400
O478        O  0.29969309  0.34850877  0.76378736    -0.74200
C479        C  0.34060218  0.34783899  0.65876107     0.77600
C480        C  0.32390248  0.44583663  0.61171060     0.78100
C481        C  0.23895649  0.36847393  0.69835388     0.77100
C482        C  0.33059798  0.48734457  0.75094233     0.77500
C483        C  0.39701868  0.46392615  0.72604183     0.78600
C484        C  0.30976892  0.36475270  0.79352717     0.77600
C485        C  0.33302048  0.01625894  0.77214252     0.03600
C486        C  0.35001477  0.02349540  0.80598259    -0.12500
C487        C  0.36034271  0.05317410  0.82438875     0.01100
C488        C  0.35414787  0.07648526  0.80915295    -0.11000
C489        C  0.33729440  0.07072860  0.77597011     0.03600
C490        C  0.32642482  0.04024313  0.75745014    -0.10500
H491        H  0.35511066  0.00589184  0.81848039     0.09200
H492        H  0.36241396  0.09943089  0.82354221     0.06700
H493        H  0.31405795  0.03579764  0.73132475     0.06600
C494        C  0.17556344  0.15797396  0.76977170     0.03600
C495        C  0.16543781  0.14153552  0.80437319    -0.12500
C496        C  0.18466555  0.13084626  0.82293893     0.01100
C497        C  0.21455341  0.13786956  0.80646636    -0.11000
C498        C  0.22593552  0.15477765  0.77356034     0.03600
C499        C  0.20606594  0.16450566  0.75496316    -0.10500
H500        H  0.14252943  0.13650884  0.81616131     0.09200
H501        H  0.23010710  0.13032918  0.81948807     0.06700
H502        H  0.21399664  0.17659870  0.72867027     0.06600
Zn503      Zn  0.10742177  0.15262897  0.68182970     1.49700
Zn504      Zn  0.04263868  0.15853782  0.71564476     1.49400
Zn505      Zn  0.11825539  0.20576276  0.73636860     1.49100
Zn506      Zn  0.08598817  0.20415417  0.65674775     1.49500
O507        O  0.08828702  0.17961567  0.69709159    -1.83600
O508        O  0.06815672  0.10971465  0.69190528    -0.74300
O509        O  0.04051818  0.18243391  0.76168548    -0.74100
O510        O  0.14550604  0.18652540  0.76062833    -0.73600
O511        O  0.03782407  0.11629046  0.73314995    -0.74300
O512        O  0.14314225  0.15353163  0.71640279    -0.73900
O513        O  0.09312611  0.21331944  0.77585229    -0.74500
O514        O  0.11133920  0.25045835  0.67366501    -0.73800
O515        O  0.00673996  0.15588500  0.67972053    -0.74600
O516        O  0.14625764  0.25026153  0.71498219    -0.74000
O517        O  0.03939055  0.19220546  0.63880624    -0.74500
O518        O  0.11033233  0.19949750  0.61460264    -0.74400
O519        O  0.12355173  0.16188588  0.62710770    -0.74200
C520        C  0.05730506  0.10637976  0.72455705     0.77600
C521        C  0.06313837  0.20298414  0.78284984     0.78100
C522        C  0.15370152  0.16655765  0.74791493     0.77100
C523        C  0.13647774  0.26516847  0.69422236     0.77500
C524        C  0.01051607  0.17266714  0.65074894     0.78600
C525        C  0.12372025  0.18314920  0.60529676     0.77600
C526        C  0.47802660  0.16304841  0.63739525     0.03600
C527        C  0.45241714  0.16477619  0.65561028    -0.12500
C528        C  0.42545254  0.16304489  0.63575572     0.01100
C529        C  0.42399806  0.15808449  0.59781000    -0.11000
C530        C  0.44843067  0.15559658  0.57935603     0.03600
C531        C  0.47570261  0.15919748  0.59893349    -0.10500
H532        H  0.45387044  0.16814257  0.68504238     0.09200
H533        H  0.40286546  0.15453630  0.58257810     0.06700
H534        H  0.99701187  0.16073022  0.57800264     0.06600
C535        C  0.46255492  0.00259309  0.58366802     0.80700
N536        N  0.97606478  0.01049913  0.57215743    -0.77600
C537        C  0.98720215  0.98995057  0.56874908     0.83200
N538        N  0.96696191  0.45834564  0.57157646    -0.77500
C539        C  0.43905581  0.44808378  0.58258965     0.83300
N540        N  0.42225800  0.46406205  0.57988175    -0.79200
Zn541      Zn  0.17117136  0.03687385  0.96715589     1.49700
Zn542      Zn  0.14654484  0.09002760  0.93749043     1.49400
Zn543      Zn  0.20318618  0.11445938  0.48771522     1.49100
Zn544      Zn  0.20503225  0.08049131  0.90688251     1.49500
O545        O  0.18135519  0.08037673  0.94939816    -1.83600
O546        O  0.11363988  0.02909059  0.47698657    -0.74300
O547        O  0.14913887  0.12952185  0.96806875    -0.74100
O548        O  0.20455347  0.08934631  0.53126529    -0.73600
O549        O  0.10724504  0.04902570  0.96327505    -0.74300
O550        O  0.17595619  0.03656438  0.51670917    -0.73900
O551        O  0.18751137  0.14548517  0.50703209    -0.74500
O552        O  0.25203628  0.10669355  0.92048865    -0.73800
O553        O  0.15182303  0.10542224  0.87999559    -0.74600
O554        O  0.25244567  0.13936214  0.96529283    -0.74000
O555        O  0.19716260  0.10461826  0.86928330    -0.74500
O556        O  0.19317802  0.03597339  0.88293150    -0.74400
O557        O  0.17198167  0.00409835  0.93102666    -0.74200
C558        C  0.10549628  0.02584488  0.98362063     0.77600
C559        C  0.16898415  0.15472545  0.49294560     0.78100
C560        C  0.19355792  0.05940439  0.53933590     0.77100
C561        C  0.26694870  0.13109586  0.94211324     0.77500
C562        C  0.17663552  0.11260097  0.85930216     0.78600
C563        C  0.18057324  0.00771043  0.89753520     0.77600
C564        C  0.16254471  0.17862687  0.51368892     0.03600
C565        C  0.14861397  0.17034648  0.54939054    -0.12500
C566        C  0.14048333  0.19113375  0.56869748     0.01100
C567        C  0.14782167  0.22106677  0.55257866    -0.11000
C568        C  0.16232591  0.23073122  0.51818510     0.03600
C569        C  0.16927995  0.20912379  0.49833527    -0.10500
H570        H  0.14302993  0.14723194  0.56149170     0.09200
H571        H  0.14216245  0.23753290  0.56702036     0.06700
H572        H  0.17872222  0.20866656  0.97262235     0.06600
C573        C  0.01908982  0.19735903  0.87265476     0.03600
C574        C  0.02448171  0.19256111  0.83554709    -0.12500
C575        C  0.05510018  0.21244580  0.81852521     0.01100
C576        C  0.08034142  0.23846881  0.83830006    -0.11000
C577        C  0.07641681  0.24380087  0.87508394     0.03600
C578        C  0.04555365  0.22315678  0.89216528    -0.10500
H579        H  0.50678271  0.16126891  0.82977824     0.09200
H580        H  0.10403276  0.25348597  0.82560601     0.06700
H581        H  0.04244785  0.22651638  0.92092428     0.06600
Zn582      Zn  0.36661723  0.06936644  0.94190870     1.49700
Zn583      Zn  0.43755223  0.08952110  0.90831212     1.49400
Zn584      Zn  0.43658549  0.14307852  0.96088180     1.49100
Zn585      Zn  0.41600487  0.08168537  0.49829807     1.49500
O586        O  0.41321854  0.09573883  0.95086127    -1.83600
O587        O  0.35821191  0.05769110  0.88842399    -0.74300
O588        O  0.47741837  0.13324554  0.89116648    -0.74100
O589        O  0.40027411  0.15063832  0.95008971    -0.73600
O590        O  0.40624553  0.07036884  0.86418043    -0.74300
O591        O  0.35303623  0.10170025  0.94849567    -0.73900
O592        O  0.47746693  0.17113672  0.92691380    -0.74500
O593        O  0.42260654  0.11007062  0.54060024    -0.73800
O594        O  0.45271167  0.05869141  0.92841606    -0.74600
O595        O  0.45107534  0.15814197  0.51323114    -0.74000
O596        O  0.45895126  0.09083010  0.48384966    -0.74500
O597        O  0.37868859  0.03407359  0.51136500    -0.74400
O598        O  0.33942292  0.02712201  0.97385204    -0.74200
C599        C  0.37571537  0.05990416  0.86098549     0.77600
C600        C  0.49011048  0.16329565  0.90068165     0.78100
C601        C  0.36912162  0.13295252  0.94788166     0.77100
C602        C  0.44074125  0.14089110  0.54235580     0.77500
C603        C  0.45750356  0.06628902  0.96205728     0.78600
C604        C  0.34910033  0.01671702  0.50009207     0.77600
C605        C  0.02157907  0.32992456  0.51739713     0.03600
C606        C  0.02791404  0.34565454  0.55226899    -0.12500
C607        C  0.05868099  0.35927565  0.56940871     0.01100
C608        C  0.08334322  0.35641441  0.55198896    -0.11000
C609        C  0.07810049  0.33991048  0.51885774     0.03600
C610        C  0.04705394  0.32665578  0.50117644    -0.10500
H611        H  0.50614191  0.34118417  0.56960339     0.09200
H612        H  0.10713503  0.36649055  0.56480305     0.06700
H613        H  0.04207758  0.31231787  0.97194035     0.06600
Zn614      Zn  0.17466331  0.33292174  0.90108603     1.49700
Zn615      Zn  0.13197809  0.29149140  0.97215032     1.49400
Zn616      Zn  0.21027261  0.32754589  0.97722482     1.49100
Zn617      Zn  0.17532057  0.37105864  0.97463409     1.49500
O618        O  0.17330863  0.33081815  0.95555396    -1.83600
O619        O  0.13116353  0.29193441  0.88064955    -0.74300
O620        O  0.14115175  0.26393674  0.49696140    -0.69900
O621        O  0.23922310  0.32772514  0.93767049    -0.73600
O622        O  0.10364802  0.26670029  0.93085631    -0.74300
O623        O  0.21775518  0.33243112  0.88544311    -0.73900
O624        O  0.19527480  0.28697910  0.49771251    -0.74500
O625        O  0.22330006  0.40833193  0.49690071    -0.73800
O626        O  0.10238533  0.31052482  0.49428723    -0.74600
O627        O  0.24412551  0.37591629  0.50299112    -0.74000
O628        O  0.13445563  0.36460073  0.50102659    -0.74500
O629        O  0.17382372  0.39940603  0.93519114    -0.74400
O630        O  0.17401436  0.37564989  0.88304845    -0.74200
C631        C  0.10534367  0.26899717  0.89637070     0.77600
C632        C  0.16668333  0.26215012  0.50304683     0.78100
C633        C  0.24006816  0.33005117  0.90303774     0.77100
C634        C  0.24692262  0.40422155  0.50634771     0.77500
C635        C  0.10635342  0.33822303  0.50353606     0.78600
C636        C  0.17291906  0.39872042  0.90050016     0.77600
Zn637      Zn  0.36869282  0.29507045  0.96303692     1.49700
Zn638      Zn  0.42110582  0.34860805  0.91041494     1.49400
Zn639      Zn  0.43499710  0.33396112  0.49993273     1.49100
Zn640      Zn  0.43822835  0.29374556  0.94017368     1.49500
O641        O  0.41560521  0.31745213  0.95185676    -1.83600
O642        O  0.34006568  0.30862576  0.93171565    -0.74300
O643        O  0.44567284  0.39473154  0.93405631    -0.74100
O644        O  0.40501421  0.32822448  0.54278583    -0.73600
O645        O  0.37643002  0.34193119  0.89118811    -0.74300
O646        O  0.35540563  0.29679262  0.51892768    -0.73900
O647        O  0.46378429  0.37559528  0.47656741    -0.74500
O648        O  0.48215836  0.30472746  0.96946570    -0.73800
O649        O  0.44275104  0.33985974  0.86610434    -0.74600
O650        O  0.46619744  0.32125109  0.51978656    -0.74000
O651        O  0.44791443  0.29828857  0.88630397    -0.74500
O652        O  0.40159718  0.24798693  0.94650385    -0.74400
O653        O  0.35500072  0.24927011  0.95188144    -0.74200
C654        C  0.34698439  0.32672309  0.90318914     0.77600
C655        C  0.45606712  0.39202001  0.96514934     0.78100
C656        C  0.37414604  0.31054416  0.54646750     0.77100
C657        C  0.48604242  0.31678299  0.50122346     0.77500
C658        C  0.44901047  0.31695555  0.86061964     0.78600
C659        C  0.37042865  0.23404739  0.94817692     0.77600
C660        C  0.32096664  0.33105579  0.88386065     0.03600
C661        C  0.32608540  0.34286653  0.84738312    -0.12500
C662        C  0.30282113  0.34788993  0.82913263     0.01100
C663        C  0.27440697  0.34175753  0.84715687    -0.11000
C664        C  0.26865910  0.33142792  0.88359895     0.03600
C665        C  0.29190663  0.32554055  0.90176087    -0.10500
H666        H  0.34843062  0.34872448  0.83325069     0.09200
H667        H  0.25757458  0.34711192  0.83314824     0.06700
H668        H  0.28795492  0.31775481  0.93010750     0.06600
C669        C  0.32865298  0.48812713  0.51951469     0.03600
C670        C  0.33688136  0.48231135  0.55514316    -0.12500
C671        C  0.31710426  0.45218641  0.57357502     0.01100
C672        C  0.28832558  0.42774286  0.55676874    -0.11000
C673        C  0.27811478  0.43240291  0.52243206     0.03600
C674        C  0.29842907  0.46287746  0.50391994    -0.10500
H675        H  0.35621467  0.99740447  0.56814137     0.09200
H676        H  0.27322151  0.40481328  0.57108753     0.06700
H677        H  0.28698577  0.46200461  0.97750483     0.06600
C678        C  0.16736659  0.47638934  0.88311374     0.03600
C679        C  0.15878912  0.47184251  0.84554242    -0.12500
C680        C  0.15396208  0.44380688  0.82615257     0.01100
C681        C  0.15998627  0.42108986  0.84413872    -0.11000
C682        C  0.16924305  0.42489076  0.88122110     0.03600
C683        C  0.17218434  0.45246127  0.90066388    -0.10500
H684        H  0.15802747  0.99060849  0.82686591     0.09200
H685        H  0.15617687  0.39954342  0.82948425     0.06700
H686        H  0.17855079  0.45555228  0.92947559     0.06600
C687        C  0.35126979  0.14964472  0.94484282     0.80700
N688        N  0.36786401  0.18253527  0.94628779    -0.77600
C689        C  0.35176086  0.19892778  0.94587458     0.83200
N690        N  0.31870292  0.18242514  0.94422426    -0.77500
C691        C  0.30211517  0.14930747  0.94174762     0.83300
N692        N  0.31834212  0.13282322  0.94217476    -0.79200
C693        C  0.45454379  0.39708645  0.54535396    -0.01300
C694        C  0.43705168  0.39534518  0.51266337     0.08300
C695        C  0.40629502  0.39320925  0.51662902    -0.01500
C696        C  0.39776089  0.40002657  0.55106618    -0.01500
C697        C  0.42125668  0.41202161  0.57909307     0.08500
C698        C  0.44223275  0.39965381  0.57939130    -0.01700
Br699      Br  0.96416050  0.39270705  0.60968122    -0.00200
Br700      Br  0.49649765  0.39989973  0.54510910    -0.00300
Br701      Br  0.35397186  0.39027414  0.56211116    -0.00200
Br702      Br  0.38576518  0.38890307  0.96005164    -0.00200
C703        C  0.45560799  0.05773968  0.54599249    -0.01300
C704        C  0.44564033  0.04159058  0.51114940     0.08300
C705        C  0.42116412  0.01082070  0.98883410    -0.01500
C706        C  0.41681451  0.99004296  0.54453536    -0.01500
C707        C  0.43407726  0.00642962  0.57652172     0.08500
C708        C  0.44353726  0.03951094  0.57851320    -0.01700
Br709      Br  0.45669748  0.06064050  0.62557763    -0.00200
Br710      Br  0.49182120  0.10231055  0.55073067    -0.00300
Br711      Br  0.36462486  0.44477149  0.00802710    -0.00200
Br712      Br  0.40129821  0.99189421  0.94207801    -0.00200
C713        C  0.05454330  0.98046739  0.01354573    -0.01300
C714        C  0.06748824  0.02985802  0.49431358     0.08300
C715        C  0.07301431  0.03795773  0.53194124    -0.01500
C716        C  0.04690975  0.02378265  0.55679000    -0.01500
C717        C  0.01535520  0.00132826  0.54416550     0.08500
C718        C  0.00969296  0.99568479  0.50593055    -0.01700
Br719      Br  0.96281220  0.47713718  0.48093811    -0.00200
Br720      Br  0.04770984  0.95089784  0.97384693    -0.00300
Br721      Br  0.05383831  0.03701587  0.60743511    -0.00200
Br722      Br  0.11643979  0.06922520  0.54932093    -0.00200
C723        C  0.44519797  0.55377106  0.75032882    -0.01300
C724        C  0.45827975  0.54930817  0.78282244     0.08300
C725        C  0.43475433  0.52456509  0.80493629    -0.01500
C726        C  0.41219921  0.49482573  0.78740005    -0.01500
C727        C  0.40935308  0.49468034  0.74814424     0.08500
C728        C  0.42151750  0.52564476  0.73115833    -0.01700
Br729      Br  0.40552668  0.52988191  0.68440120    -0.00200
Br730      Br  0.46326412  0.59695504  0.73133517    -0.00300
Br731      Br  0.38974940  0.45626357  0.81764258    -0.00200
Br732      Br  0.43703642  0.02289673  0.85449143    -0.00200
C733        C  0.07473596  0.08823646  0.81987594    -0.01300
C734        C  0.06498417  0.05593506  0.81216742     0.08300
C735        C  0.07865354  0.05245569  0.77951383    -0.01500
C736        C  0.07783745  0.06988155  0.74859984    -0.01500
C737        C  0.06964969  0.09439700  0.75437601     0.08500
C738        C  0.07241278  0.10629447  0.79100207    -0.01700
Br739      Br  0.07025135  0.14383509  0.80403214    -0.00200
Br740      Br  0.54243467  0.07807046  0.88092638    -0.00300
Br741      Br  0.08583285  0.05862037  0.70072791    -0.00200
Br742      Br  0.08895217  0.01841235  0.77575396    -0.00200
C743        C  0.97492001  0.42925370  0.77824705    -0.01300
C744        C  0.98858832  0.43405910  0.81352871     0.08300
C745        C  0.01218753  0.42556675  0.81904864    -0.01500
C746        C  0.03002092  0.42509791  0.78888299    -0.01500
C747        C  0.02343215  0.43261695  0.75330548     0.08500
C748        C  0.99394154  0.43201405  0.74757137    -0.01700
Br749      Br  0.98090587  0.43789709  0.69960249    -0.00200
Br750      Br  0.93072795  0.41868221  0.77290360    -0.00300
Br751      Br  0.06348100  0.41505801  0.79775725    -0.00200
Br752      Br  0.44368957  0.42323008  0.78077415    -0.00200
C753        C  0.99346785  0.97018334  0.32019092     0.80700
N754        N  0.01220415  0.50598230  0.28097876    -0.77600
C755        C  0.02307517  0.53196327  0.30382504     0.83200
N756        N  0.51441756  0.54461168  0.31816178    -0.77500
C757        C  0.48136127  0.04496895  0.28393022     0.83300
N758        N  0.47953472  0.02749877  0.25369353    -0.79200
C759        C  0.15509209  0.84819798  0.18987974     0.80700
N760        N  0.18805258  0.86477737  0.19146364    -0.77600
C761        C  0.20421951  0.84828560  0.19355834     0.83200
N762        N  0.18737390  0.81510446  0.19367520    -0.77500
C763        C  0.15436339  0.79862785  0.19115485     0.83300
N764        N  0.13815312  0.81511873  0.18971256    -0.79200
C765        C  0.35110254  0.82487676  0.14054546     0.03600
C766        C  0.33890095  0.79256517  0.15439487    -0.12500
C767        C  0.34227566  0.76839842  0.13427398     0.01100
C768        C  0.35386098  0.77585030  0.09809313    -0.11000
C769        C  0.36628197  0.80758044  0.08386117     0.03600
C770        C  0.36768401  0.83218529  0.10687831    -0.10500
H771        H  0.32780522  0.78662116  0.18130670     0.09200
H772        H  0.35504183  0.75750610  0.08155468     0.06700
H773        H  0.38087156  0.85698272  0.09843785     0.06600
Zn774      Zn  0.09540679  0.88261473  0.23456060     1.49700
Zn775      Zn  0.05626966  0.89688130  0.17872479     1.49400
Zn776      Zn  0.12687397  0.95927627  0.21566327     1.49100
Zn777      Zn  0.12853757  0.91700108  0.15542423     1.49500
O778        O  0.10148449  0.91374207  0.19618732    -1.83600
O779        O  0.04668505  0.85270191  0.25365062    -0.74300
O780        O  0.05698429  0.93806325  0.18393955    -0.74100
O781        O  0.14812000  0.96096727  0.26466647    -0.73600
O782        O  0.01861912  0.86249261  0.21247611    -0.74300
O783        O  0.12408879  0.90791995  0.27826442    -0.73900
O784        O  0.09119305  0.96647987  0.22914581    -0.74500
O785        O  0.16311777  0.96360257  0.13770155    -0.73800
O786        O  0.04906588  0.88086233  0.12483312    -0.74600
O787        O  0.16126701  0.99505714  0.18118403    -0.74000
O788        O  0.10004096  0.89429952  0.11261092    -0.74500
O789        O  0.14860973  0.89106489  0.17009277    -0.74400
O790        O  0.11458830  0.85705568  0.21342763    -0.74200
C791        C  0.01924370  0.84799683  0.24173010     0.77600
C792        C  0.06242901  0.95008945  0.21609089     0.78100
C793        C  0.14313052  0.93805126  0.28671981     0.77100
C794        C  0.17305422  0.99207112  0.15097433     0.77500
C795        C  0.07026050  0.88137267  0.10295752     0.78600
C796        C  0.13821205  0.86614232  0.19088334     0.77600
C797        C  0.18402848  0.51944495  0.13440102     0.03600
C798        C  0.17834611  0.52355521  0.09731036    -0.12500
C799        C  0.19977711  0.55262711  0.07811129     0.01100
C800        C  0.22845540  0.57705440  0.09561627    -0.11000
C801        C  0.23547512  0.57380104  0.13213538     0.03600
C802        C  0.21250333  0.54495568  0.15159485    -0.10500
H803        H  0.17292450  0.00669311  0.07876582     0.09200
H804        H  0.24508574  0.59926297  0.08093407     0.06700
H805        H  0.21694037  0.54202984  0.18005449     0.06600
C806        C  0.48377755  0.82201119  0.26481147     0.03600
C807        C  0.48008912  0.83240184  0.30011198    -0.12500
C808        C  0.45119990  0.81343363  0.32069169     0.01100
C809        C  0.42604762  0.78377450  0.30605980    -0.11000
C810        C  0.42884824  0.77220028  0.27182200     0.03600
C811        C  0.45779853  0.79166490  0.25100698    -0.10500
H812        H  0.49963491  0.85509089  0.31153069     0.09200
H813        H  0.40405666  0.76905999  0.32201627     0.06700
H814        H  0.46000612  0.78335301  0.22409370     0.06600
Zn815      Zn  0.29588851  0.62638926  0.22559236     1.49700
Zn816      Zn  0.33037083  0.70516801  0.22607168     1.49400
Zn817      Zn  0.37405025  0.67086907  0.22639144     1.49100
Zn818      Zn  0.33401301  0.66841298  0.15162489     1.49500
O819        O  0.33360024  0.66771159  0.20633809    -1.83600
O820        O  0.26372726  0.63576637  0.25413491    -0.74300
O821        O  0.37231011  0.73762256  0.25508671    -0.74100
O822        O  0.36368639  0.62874770  0.25506698    -0.73600
O823        O  0.28472990  0.68962061  0.24851275    -0.74300
O824        O  0.31009883  0.59520994  0.24809117    -0.73900
O825        O  0.40474566  0.71681671  0.24908188    -0.74500
O826        O  0.37638139  0.66596044  0.13486687    -0.73800
O827        O  0.33250961  0.73505070  0.18659984    -0.74600
O828        O  0.40213187  0.66947526  0.18696704    -0.74000
O829        O  0.33812932  0.71425077  0.13452380    -0.74500
O830        O  0.28856812  0.62591998  0.13352513    -0.74400
O831        O  0.26684644  0.59905953  0.18534955    -0.74200
C832        C  0.26105509  0.66124464  0.25722673     0.77600
C833        C  0.40052863  0.74049142  0.25793699     0.78100
C834        C  0.33811599  0.60007540  0.25755038     0.77100
C835        C  0.40058074  0.66700809  0.15237908     0.77500
C836        C  0.33670723  0.73715132  0.15222814     0.78600
C837        C  0.26545270  0.60110537  0.15089056     0.77600
Zn838      Zn  0.30057248  0.86336466  0.21005724     1.49700
Zn839      Zn  0.35857523  0.92330793  0.16635506     1.49400
Zn840      Zn  0.30019679  0.93376292  0.19245513     1.49100
Zn841      Zn  0.34057342  0.92787863  0.25186825     1.49500
O842        O  0.32375046  0.91096531  0.20368777    -1.83600
O843        O  0.31906368  0.83986404  0.17871231    -0.74300
O844        O  0.34382875  0.93658434  0.11842633    -0.74100
O845        O  0.25390177  0.89774520  0.19812737    -0.73600
O846        O  0.36367581  0.88136680  0.15365907    -0.74300
O847        O  0.25449800  0.85047088  0.19775515    -0.73900
O848        O  0.30415023  0.94451394  0.13833610    -0.74500
O849        O  0.34086120  0.96947676  0.26663340    -0.73800
O850        O  0.39618216  0.96589022  0.19172780    -0.74600
O851        O  0.31307350  0.97699281  0.22343404    -0.74000
O852        O  0.38380993  0.93746328  0.24169075    -0.74500
O853        O  0.32391513  0.89638991  0.29274423    -0.74400
O854        O  0.29989731  0.84892078  0.26334658    -0.74200
C855        C  0.34476406  0.85016947  0.15908787     0.77600
C856        C  0.32168698  0.94381821  0.11240415     0.78100
C857        C  0.23951646  0.86644639  0.19665460     0.77100
C858        C  0.33005984  0.98678331  0.25294266     0.77500
C859        C  0.39703374  0.96510191  0.22675065     0.78600
C860        C  0.30956441  0.86546817  0.29293449     0.77600
C861        C  0.33904179  0.51870553  0.26850206     0.03600
C862        C  0.35561073  0.52597775  0.30255413    -0.12500
C863        C  0.36443734  0.55505661  0.32142702     0.01100
C864        C  0.35770146  0.57801045  0.30631594    -0.11000
C865        C  0.34163225  0.57249723  0.27270017     0.03600
C866        C  0.33178463  0.54231372  0.25380999    -0.10500
H867        H  0.36125781  0.50874021  0.31500987     0.09200
H868        H  0.36502976  0.60057428  0.32113225     0.06700
H869        H  0.31964480  0.53779744  0.22753227     0.06600
C870        C  0.17980455  0.66119093  0.26707705     0.03600
C871        C  0.16997988  0.64613308  0.30214868    -0.12500
C872        C  0.18909070  0.63589494  0.32145348     0.01100
C873        C  0.21867647  0.64182332  0.30564538    -0.11000
C874        C  0.22977973  0.65739579  0.27195972     0.03600
C875        C  0.21001254  0.66680590  0.25240689    -0.10500
H876        H  0.14705836  0.64142171  0.31374996     0.09200
H877        H  0.23391850  0.63449861  0.31986191     0.06700
H878        H  0.21780604  0.67793391  0.22563149     0.06600
Zn879      Zn  0.10872884  0.65185553  0.18157251     1.49700
Zn880      Zn  0.04272745  0.65464290  0.21669260     1.49400
Zn881      Zn  0.11869020  0.70464869  0.23525331     1.49100
Zn882      Zn  0.08429610  0.70155634  0.15712674     1.49500
O883        O  0.08800438  0.67740121  0.19713813    -1.83600
O884        O  0.07210412  0.60773832  0.19378689    -0.74300
O885        O  0.04097270  0.67697047  0.26421733    -0.74100
O886        O  0.14804909  0.68773589  0.25826120    -0.73600
O887        O  0.04066005  0.61337740  0.23463282    -0.74300
O888        O  0.14679706  0.65548560  0.21389972    -0.73900
O889        O  0.09372492  0.71089576  0.27592726    -0.74500
O890        O  0.11028993  0.74837991  0.17238462    -0.73800
O891        O  0.00573280  0.65224283  0.18115063    -0.74600
O892        O  0.14578494  0.74872130  0.21313894    -0.74000
O893        O  0.03736847  0.68925885  0.14025379    -0.74500
O894        O  0.10766091  0.69659128  0.11458594    -0.74400
O895        O  0.12306588  0.66055202  0.12669304    -0.74200
C896        C  0.06109947  0.60443170  0.22637058     0.77600
C897        C  0.06371668  0.69828978  0.28469633     0.78100
C898        C  0.15744089  0.66888511  0.24517156     0.77100
C899        C  0.13602911  0.76333784  0.19199901     0.77500
C900        C  0.00874873  0.66928538  0.15248959     0.78600
C901        C  0.12177086  0.68104378  0.10496371     0.77600
C902        C  0.48009871  0.66462979  0.13434522     0.03600
C903        C  0.45501439  0.66717633  0.15269664    -0.12500
C904        C  0.42768790  0.66495583  0.13318861     0.01100
C905        C  0.42573120  0.65939500  0.09530376    -0.11000
C906        C  0.44969766  0.65614684  0.07674025     0.03600
C907        C  0.47684902  0.65924020  0.09611969    -0.10500
H908        H  0.45709109  0.67141189  0.18199183     0.09200
H909        H  0.40453354  0.65590404  0.08026600     0.06700
H910        H  0.99434797  0.65889458  0.07939366     0.06600
C911        C  0.43009154  0.48563189  0.06824510     0.80700
N912        N  0.96783038  0.51437404  0.06541940    -0.77600
C913        C  0.98443261  0.49875468  0.06401556     0.83200
N914        N  0.98288363  0.98888768  0.05743592    -0.77500
C915        C  0.44235753  0.94487915  0.07749233     0.83300
N916        N  0.42404359  0.95933037  0.07730976    -0.79200
Zn917      Zn  0.15502370  0.53999053  0.47014947     1.49700
Zn918      Zn  0.14756918  0.60187978  0.43351877     1.49400
Zn919      Zn  0.20195935  0.61404689  0.98790909     1.49100
Zn920      Zn  0.20113109  0.58242854  0.41084791     1.49500
O921        O  0.17576985  0.58470520  0.45048177    -1.83600
O922        O  0.11007261  0.52976945  0.97686659    -0.74300
O923        O  0.15322543  0.64199083  0.46370569    -0.74100
O924        O  0.20368893  0.58942169  0.03176709    -0.73600
O925        O  0.10185273  0.56669605  0.44970227    -0.74300
O926        O  0.17247704  0.53640931  0.01929140    -0.73900
O927        O  0.18614862  0.64485717  0.00720245    -0.74500
O928        O  0.24795902  0.60589993  0.42729809    -0.73800
O929        O  0.15657827  0.61629470  0.37787055    -0.74600
O930        O  0.24874087  0.64037258  0.46980457    -0.74000
O931        O  0.19764634  0.60748371  0.36921901    -0.74500
O932        O  0.18681357  0.53605499  0.39127377    -0.74400
O933        O  0.15355381  0.50440394  0.43502124    -0.74200
C934        C  0.09340701  0.54357550  0.47308249     0.77600
C935        C  0.16794027  0.65432200  0.99277342     0.78100
C936        C  0.19151884  0.55955511  0.04099452     0.77100
C937        C  0.26324641  0.63062657  0.44843031     0.77500
C938        C  0.18004485  0.61886517  0.35800767     0.78600
C939        C  0.16789284  0.50753852  0.40437050     0.77600
C940        C  0.16090789  0.67771919  0.01348024     0.03600
C941        C  0.14773316  0.66959769  0.04945966    -0.12500
C942        C  0.13777615  0.68915723  0.06812576     0.01100
C943        C  0.14304226  0.71813745  0.05143977    -0.11000
C944        C  0.15754281  0.72803290  0.01715779     0.03600
C945        C  0.16591375  0.70737332  0.99764377    -0.10500
H946        H  0.14418995  0.64756194  0.06241891     0.09200
H947        H  0.13628237  0.73391413  0.06556554     0.06700
H948        H  0.17948942  0.71610795  0.47397818     0.06600
C949        C  0.02249418  0.68933311  0.37740206     0.03600
C950        C  0.02734271  0.68404097  0.34040084    -0.12500
C951        C  0.05614422  0.70639531  0.32138716     0.01100
C952        C  0.08049980  0.73441264  0.33965030    -0.11000
C953        C  0.07721490  0.74014443  0.37651017     0.03600
C954        C  0.04769239  0.71769756  0.39508928    -0.10500
H955        H  0.50958401  0.66515469  0.32486123     0.09200
H956        H  0.10300945  0.75108076  0.32554496     0.06700
H957        H  0.04473908  0.72163609  0.42371832     0.06600
Zn958      Zn  0.36816361  0.57156772  0.43861724     1.49700
Zn959      Zn  0.44078854  0.59367276  0.40535871     1.49400
Zn960      Zn  0.43662985  0.64698512  0.45428931     1.49100
Zn961      Zn  0.41700408  0.58219029  0.99500630     1.49500
O962        O  0.41484140  0.59929388  0.44664128    -1.83600
O963        O  0.36120360  0.55980623  0.38512197    -0.74300
O964        O  0.48011651  0.63763317  0.38712969    -0.74100
O965        O  0.39844204  0.65232040  0.44500399    -0.73600
O966        O  0.40971691  0.57246299  0.36179561    -0.74300
O967        O  0.35235382  0.60245196  0.44578352    -0.73900
O968        O  0.47762950  0.67568487  0.41987758    -0.74500
O969        O  0.42641825  0.61066501  0.03785911    -0.73800
O970        O  0.45747235  0.56464860  0.42669090    -0.74600
O971        O  0.44910652  0.65899477  0.01069447    -0.74000
O972        O  0.45970136  0.59289452  0.97464974    -0.74500
O973        O  0.37741375  0.53525121  0.00964088    -0.74400
O974        O  0.34200846  0.52927883  0.47143504    -0.74200
C975        C  0.37916891  0.56178999  0.35819741     0.77600
C976        C  0.49160498  0.66785318  0.39511071     0.78100
C977        C  0.36726468  0.63368786  0.44507951     0.77100
C978        C  0.44181259  0.64157126  0.03969856     0.77500
C979        C  0.46104257  0.57226119  0.46041154     0.78600
C980        C  0.34760539  0.51738546  0.99908997     0.77600
C981        C  0.02461018  0.84241337  0.01240775     0.03600
C982        C  0.03209017  0.85776540  0.04746384    -0.12500
C983        C  0.06129403  0.86576034  0.06598874     0.01100
C984        C  0.08354342  0.85887499  0.04911320    -0.11000
C985        C  0.07739599  0.84349421  0.01521000     0.03600
C986        C  0.04744960  0.83465225  0.99680408    -0.10500
H987        H  0.50804716  0.84562110  0.06516941     0.09200
H988        H  0.10621932  0.86510571  0.06283990     0.06700
H989        H  0.04123835  0.81617908  0.46849204     0.06600
Zn990      Zn  0.17365941  0.83356073  0.39967240     1.49700
Zn991      Zn  0.13138983  0.79498325  0.47127129     1.49400
Zn992      Zn  0.20961739  0.83039964  0.47566812     1.49100
Zn993      Zn  0.17519087  0.87351867  0.47317438     1.49500
O994        O  0.17278518  0.83326478  0.45404615    -1.83600
O995        O  0.13058338  0.79100223  0.37984460    -0.74300
O996        O  0.13650063  0.76161636  0.99675342    -0.69900
O997        O  0.23862291  0.83024511  0.43671021    -0.73600
O998        O  0.10398589  0.76735899  0.43097597    -0.74300
O999        O  0.21692531  0.83380520  0.38417896    -0.73900
O1000       O  0.19064782  0.78370807  0.99659775    -0.74500
O1001       O  0.22109349  0.90491413  0.99593988    -0.73800
O1002       O  0.09911334  0.81064415  0.99287430    -0.74600
O1003       O  0.24127331  0.87210311  0.00288701    -0.74000
O1004       O  0.13282785  0.86473582  0.99594022    -0.74500
O1005       O  0.17546152  0.90157276  0.43328979    -0.74400
O1006       O  0.17353997  0.87617881  0.38147889    -0.74200
C1007       C  0.10546811  0.76786334  0.39645095     0.77600
C1008       C  0.16189178  0.75937627  0.00230548     0.78100
C1009       C  0.23943777  0.83210109  0.40206634     0.77100
C1010       C  0.24433936  0.90053234  0.00619621     0.77500
C1011       C  0.10426986  0.83927383  0.99990686     0.78600
C1012       C  0.17404360  0.90018034  0.39869437     0.77600
Zn1013     Zn  0.36526371  0.79503568  0.46142360     1.49700
Zn1014     Zn  0.42062629  0.85195773  0.41360149     1.49400
Zn1015     Zn  0.43743325  0.83828394  0.99433829     1.49100
Zn1016     Zn  0.43419175  0.79416739  0.43720378     1.49500
O1017       O  0.41157300  0.81697043  0.45064704    -1.83600
O1018       O  0.33834318  0.80954737  0.43003691    -0.74300
O1019       O  0.44536565  0.89437019  0.44511391    -0.74100
O1020       O  0.40892299  0.83390896  0.03921977    -0.73600
O1021       O  0.37691192  0.84798119  0.39500215    -0.74300
O1022       O  0.35890334  0.79837484  0.01914674    -0.73900
O1023       O  0.46532282  0.87678614  0.96404935    -0.74500
O1024       O  0.47979074  0.80820844  0.46429430    -0.73800
O1025       O  0.44339692  0.84541574  0.36724122    -0.74600
O1026       O  0.46937809  0.82734065  0.01455814    -0.74000
O1027       O  0.44280409  0.79970458  0.38318104    -0.74500
O1028       O  0.39803506  0.74803348  0.44568781    -0.74400
O1029       O  0.35129509  0.74894104  0.45229148    -0.74200
C1030       C  0.34675718  0.83066587  0.40436393     0.77600
C1031       C  0.46136896  0.89170187  0.47158421     0.78100
C1032       C  0.37858865  0.81432161  0.04532649     0.77100
C1033       C  0.48773382  0.82001819  0.99719976     0.77500
C1034       C  0.44681476  0.82093807  0.35920559     0.78600
C1035       C  0.36688399  0.73383792  0.44900503     0.77600
C1036       C  0.32108096  0.83482617  0.38455321     0.03600
C1037       C  0.32617844  0.84568743  0.34784477    -0.12500
C1038       C  0.30242576  0.84922901  0.32871860     0.01100
C1039       C  0.27378862  0.84307299  0.34626803    -0.11000
C1040       C  0.26819061  0.83369182  0.38302207     0.03600
C1041       C  0.29173798  0.82885470  0.40192218    -0.10500
H1042       H  0.34874536  0.85169179  0.33412363     0.09200
H1043       H  0.25669906  0.84767155  0.33163415     0.06700
H1044       H  0.28779305  0.82152236  0.43042301     0.06600
C1045       C  0.32555813  0.98475632  0.02026047     0.03600
C1046       C  0.33340559  0.97937851  0.05610222    -0.12500
C1047       C  0.31399455  0.94930223  0.07441619     0.01100
C1048       C  0.28548742  0.92436930  0.05742098    -0.11000
C1049       C  0.27541356  0.92872618  0.02273328     0.03600
C1050       C  0.29568598  0.95927828  0.00427543    -0.10500
H1051       H  0.35476666  0.50035721  0.06867809     0.09200
H1052       H  0.27059434  0.90142195  0.07176645     0.06700
H1053       H  0.28850912  0.96309406  0.47670278     0.06600
C1054       C  0.17051557  0.97852337  0.38076548     0.03600
C1055       C  0.16267311  0.97425249  0.34304481    -0.12500
C1056       C  0.15784552  0.94609502  0.32396602     0.01100
C1057       C  0.16312183  0.92312770  0.34213019    -0.11000
C1058       C  0.17155176  0.92671268  0.37927678     0.03600
C1059       C  0.17462560  0.95433622  0.39860194    -0.10500
H1060       H  0.14462437  0.48929501  0.33461788     0.09200
H1061       H  0.15931524  0.90155962  0.32750744     0.06700
H1062       H  0.18036974  0.95718252  0.42758054     0.06600
C1063       C  0.34832062  0.64954590  0.44536409     0.80700
N1064       N  0.36461265  0.68244785  0.44666788    -0.77600
C1065       C  0.34833989  0.69858119  0.44874502     0.83200
N1066       N  0.31526202  0.68177774  0.44989836    -0.77500
C1067       C  0.29867820  0.64859916  0.44801544     0.83300
N1068       N  0.31518423  0.63231779  0.44566768    -0.79200
C1069       C  0.46177272  0.90121084  0.03159361    -0.01300
C1070       C  0.44245090  0.89934818  0.00074066     0.08300
C1071       C  0.41119252  0.89538190  0.00702947    -0.01500
C1072       C  0.40238323  0.89802800  0.04307013    -0.01500
C1073       C  0.42648154  0.90933751  0.07058895     0.08500
C1074       C  0.44956058  0.89967004  0.06698033    -0.01700
Br1075     Br  0.90770802  0.93757513  0.08296968    -0.00200
Br1076     Br  0.50603886  0.91003128  0.02662610    -0.00300
Br1077     Br  0.35762740  0.88372316  0.05578605    -0.00200
Br1078     Br  0.39688859  0.88490884  0.50669456    -0.00200
C1079       C  0.44838783  0.55235422  0.03062521    -0.01300
C1080       C  0.44225869  0.54062371  0.99383938     0.08300
C1081       C  0.42366255  0.51725495  0.48689403    -0.01500
C1082       C  0.40051276  0.48776236  0.01679620    -0.01500
C1083       C  0.41101036  0.49894958  0.05282200     0.08500
C1084       C  0.42720033  0.53274429  0.05836170    -0.01700
Br1085     Br  0.43193490  0.54906656  0.10726355    -0.00200
Br1086     Br  0.48735859  0.59310910  0.04423877    -0.00300
Br1087     Br  0.38413283  0.94472960  0.54729078    -0.00200
Br1088     Br  0.39925356  0.50178538  0.44168934    -0.00200
C1089       C  0.03296991  0.51399455  0.47995064    -0.01300
C1090       C  0.06471121  0.53386596  0.99045266     0.08300
C1091       C  0.06962249  0.54779479  0.02577958    -0.01500
C1092       C  0.04310508  0.53780018  0.04953998    -0.01500
C1093       C  0.01223009  0.51221486  0.03883547     0.08500
C1094       C  0.00683264  0.50111198  0.00203735    -0.01700
Br1095     Br  0.99259493  0.92878729  0.04310296    -0.00200
Br1096     Br  0.02810254  0.50472144  0.42803451    -0.00300
Br1097     Br  0.04857096  0.56095916  0.09485530    -0.00200
Br1098     Br  0.11301001  0.57956745  0.04225202    -0.00200
C1099       C  0.44008765  0.05411153  0.25838735    -0.01300
C1100       C  0.45305732  0.04904844  0.29058110     0.08300
C1101       C  0.43050531  0.02168382  0.31038864    -0.01500
C1102       C  0.41124161  0.99257152  0.29016893    -0.01500
C1103       C  0.40916473  0.99474952  0.25093732     0.08500
C1104       C  0.41935162  0.02642461  0.23657429    -0.01700
Br1105     Br  0.40537727  0.03246273  0.18937832    -0.00200
Br1106     Br  0.45677795  0.09811685  0.24203417    -0.00300
Br1107     Br  0.39196508  0.95210480  0.31741244    -0.00200
Br1108     Br  0.44118984  0.49976475  0.36949890    -0.00200
C1109       C  0.07085421  0.58224502  0.32203425    -0.01300
C1110       C  0.05890446  0.54974077  0.31233461     0.08300
C1111       C  0.07650137  0.54724723  0.28255745    -0.01500
C1112       C  0.07945253  0.56625981  0.25130834    -0.01500
C1113       C  0.07330907  0.59226558  0.25629611     0.08500
C1114       C  0.07504511  0.60349990  0.29299314    -0.01700
Br1115     Br  0.08260781  0.64580007  0.30433035    -0.00200
Br1116     Br  0.57245273  0.59670698  0.37764850    -0.00300
Br1117     Br  0.08853145  0.55494385  0.20400447    -0.00200
Br1118     Br  0.08283054  0.51052913  0.28005225    -0.00200
C1119       C  0.99515509  0.95726266  0.25479666    -0.01300
C1120       C  0.99655746  0.94987960  0.29229510     0.08300
C1121       C  0.01383514  0.93446401  0.30226369    -0.01500
C1122       C  0.03493029  0.93298330  0.27672182    -0.01500
C1123       C  0.03521850  0.94298488  0.24012577     0.08500
C1124       C  0.01197574  0.95050580  0.22832042    -0.01700
Br1125     Br  0.00818276  0.95839865  0.17685786    -0.00200
Br1126     Br  0.98180794  0.98720892  0.23955177    -0.00300
Br1127     Br  0.06538601  0.92055207  0.29342096    -0.00200
Br1128     Br  0.44587332  0.93528724  0.26053486    -0.00200
C1129       C  0.98658075  0.98394550  0.78856136     0.80700
N1130       N  0.02627131  0.48952863  0.83374612    -0.77600
C1131       C  0.03332636  0.52094900  0.83691567     0.83200
N1132       N  0.50711944  0.54671780  0.80180971    -0.77500
C1133       C  0.47641966  0.04276916  0.77350939     0.83300
N1134       N  0.47489623  0.02627913  0.74239569    -0.79200
C1135       C  0.14965635  0.84464328  0.69060687     0.80700
N1136       N  0.18259735  0.86195826  0.69120106    -0.77600
C1137       C  0.19941246  0.84620205  0.69349845     0.83200
N1138       N  0.18333672  0.81307108  0.69483587    -0.77500
C1139       C  0.15034635  0.79581391  0.69340532     0.83300
N1140       N  0.13338784  0.81155136  0.69168512    -0.79200
C1141       C  0.34151295  0.82159635  0.63446702     0.03600
C1142       C  0.33582307  0.79206496  0.65156587    -0.12500
C1143       C  0.34202685  0.76910884  0.63299645     0.01100
C1144       C  0.35462681  0.77672559  0.59737750    -0.11000
C1145       C  0.36046189  0.80553825  0.57988056     0.03600
C1146       C  0.35244126  0.82687440  0.59772439    -0.10500
H1147       H  0.32694356  0.78719131  0.67949643     0.09200
H1148       H  0.36059887  0.76037849  0.58319669     0.06700
H1149       H  0.35410750  0.84722155  0.58262816     0.06600
Zn1150     Zn  0.08987506  0.87772835  0.73516451     1.49700
Zn1151     Zn  0.04717035  0.88307196  0.67810501     1.49400
Zn1152     Zn  0.11247426  0.95094931  0.71529957     1.49100
Zn1153     Zn  0.12088212  0.91141803  0.65570075     1.49500
O1154       O  0.09283870  0.90650583  0.69583762    -1.83600
O1155       O  0.04346134  0.84853001  0.75801077    -0.74300
O1156       O  0.03554723  0.91661692  0.68155062    -0.74100
O1157       O  0.13516123  0.95582741  0.76533594    -0.73600
O1158       O  0.01261134  0.84639606  0.71170396    -0.74300
O1159       O  0.12003827  0.90406138  0.77650272    -0.73900
O1160       O  0.07148051  0.95104039  0.72348626    -0.74500
O1161       O  0.15355052  0.95913608  0.63896983    -0.73800
O1162       O  0.04122289  0.86613825  0.62553799    -0.74600
O1163       O  0.14573131  0.98838704  0.68060958    -0.74000
O1164       O  0.09358356  0.88697206  0.61228475    -0.74500
O1165       O  0.14271258  0.88738056  0.67148241    -0.74400
O1166       O  0.10810175  0.85192566  0.71345638    -0.74200
C1167       C  0.01513979  0.83775611  0.74404822     0.77600
C1168       C  0.04311603  0.93584114  0.70881778     0.78100
C1169       C  0.13580562  0.93422474  0.78561586     0.77100
C1170       C  0.16009956  0.98697231  0.65161573     0.77500
C1171       C  0.06353177  0.87016013  0.60325001     0.78600
C1172       C  0.13222288  0.86195338  0.69152238     0.77600
C1173       C  0.18653794  0.52164269  0.63423787     0.03600
C1174       C  0.18048643  0.52564953  0.59735735    -0.12500
C1175       C  0.20186501  0.55460466  0.57807248     0.01100
C1176       C  0.23075922  0.57895997  0.59512799    -0.11000
C1177       C  0.23807058  0.57563952  0.63141952     0.03600
C1178       C  0.21527323  0.54693300  0.65107143    -0.10500
H1179       H  0.15789928  0.00370851  0.58065599     0.09200
H1180       H  0.24726451  0.60114208  0.58032048     0.06700
H1181       H  0.21997341  0.54397545  0.67942933     0.06600
C1182       C  0.48209695  0.82112713  0.76556330     0.03600
C1183       C  0.47825992  0.83145507  0.80068803    -0.12500
C1184       C  0.44940641  0.81224643  0.82103298     0.01100
C1185       C  0.42443078  0.78257422  0.80646123    -0.11000
C1186       C  0.42758519  0.77127724  0.77228646     0.03600
C1187       C  0.45646313  0.79081409  0.75164269    -0.10500
H1188       H  0.49757809  0.85429781  0.81209157     0.09200
H1189       H  0.40235656  0.76778225  0.82226520     0.06700
H1190       H  0.45884757  0.78261621  0.72472746     0.06600
Zn1191     Zn  0.29770200  0.62758801  0.72463928     1.49700
Zn1192     Zn  0.33076220  0.70565579  0.72469446     1.49400
Zn1193     Zn  0.37524897  0.67162867  0.72465342     1.49100
Zn1194     Zn  0.33586509  0.67020302  0.65044544     1.49500
O1195       O  0.33497408  0.66878670  0.70500199    -1.83600
O1196       O  0.26485791  0.63611834  0.75272566    -0.74300
O1197       O  0.37146580  0.73685512  0.75527204    -0.74100
O1198       O  0.36540900  0.62981266  0.75352760    -0.73600
O1199       O  0.28480322  0.68965359  0.74612053    -0.74300
O1200       O  0.31173660  0.59656421  0.74755929    -0.73900
O1201       O  0.40460472  0.71687991  0.74815485    -0.74500
O1202       O  0.37833186  0.66827085  0.63302842    -0.73800
O1203       O  0.33362587  0.73655582  0.68591684    -0.74600
O1204       O  0.40378955  0.67107124  0.68508272    -0.74000
O1205       O  0.33944624  0.71581745  0.63392200    -0.74500
O1206       O  0.29078512  0.62781343  0.63248958    -0.74400
O1207       O  0.26948704  0.60060705  0.68430803    -0.74200
C1208       C  0.26152024  0.66121976  0.75516714     0.77600
C1209       C  0.39974325  0.73990171  0.75795455     0.78100
C1210       C  0.33975398  0.60133240  0.75674391     0.77100
C1211       C  0.40247711  0.66915415  0.65043630     0.77500
C1212       C  0.33785003  0.73864450  0.65155885     0.78600
C1213       C  0.26798083  0.60285112  0.64992513     0.77600
Zn1214     Zn  0.29495667  0.86082614  0.70837693     1.49700
Zn1215     Zn  0.35250323  0.91993394  0.66532131     1.49400
Zn1216     Zn  0.29531746  0.93219636  0.69143381     1.49100
Zn1217     Zn  0.33424218  0.92477647  0.75149570     1.49500
O1218       O  0.31804547  0.90858822  0.70280977    -1.83600
O1219       O  0.31024700  0.83603900  0.67465248    -0.74300
O1220       O  0.34034330  0.93557398  0.61868958    -0.74100
O1221       O  0.24881813  0.89621127  0.69594109    -0.73600
O1222       O  0.35481855  0.87749764  0.65009919    -0.74300
O1223       O  0.24950678  0.84899213  0.69786311    -0.73900
O1224       O  0.30130475  0.94472569  0.63780280    -0.74500
O1225       O  0.33484406  0.96673587  0.76687715    -0.73800
O1226       O  0.39131037  0.96111056  0.68931080    -0.74600
O1227       O  0.30777596  0.97477132  0.72319359    -0.74000
O1228       O  0.37693558  0.93363795  0.74012392    -0.74500
O1229       O  0.31793678  0.89224434  0.79177318    -0.74400
O1230       O  0.29545719  0.84549137  0.76094176    -0.74200
C1231       C  0.33536461  0.84637111  0.65418671     0.77600
C1232       C  0.31939783  0.94418654  0.61243078     0.78100
C1233       C  0.23456393  0.86488517  0.69578633     0.77100
C1234       C  0.32436245  0.98429036  0.75296895     0.77500
C1235       C  0.39067705  0.96089515  0.72427265     0.78600
C1236       C  0.30463756  0.86135285  0.79100978     0.77600
C1237       C  0.33896864  0.51939863  0.76940411     0.03600
C1238       C  0.35459652  0.52628243  0.80393722    -0.12500
C1239       C  0.36376927  0.55552640  0.82247699     0.01100
C1240       C  0.35835208  0.57911713  0.80654142    -0.11000
C1241       C  0.34300576  0.57381993  0.77244335     0.03600
C1242       C  0.33289966  0.54349318  0.75384650    -0.10500
H1243       H  0.35923698  0.50859812  0.81707265     0.09200
H1244       H  0.36588144  0.60181285  0.82115465     0.06700
H1245       H  0.32136965  0.53917140  0.72721246     0.06600
C1246       C  0.18020105  0.66089397  0.76533710     0.03600
C1247       C  0.17040215  0.64558222  0.80027324    -0.12500
C1248       C  0.18942363  0.63505115  0.81920774     0.01100
C1249       C  0.21893900  0.64102662  0.80327773    -0.11000
C1250       C  0.23006449  0.65692878  0.76975985     0.03600
C1251       C  0.21033942  0.66653161  0.75045102    -0.10500
H1252       H  0.14749584  0.64082898  0.81200844     0.09200
H1253       H  0.23416594  0.63361717  0.81738146     0.06700
H1254       H  0.21815416  0.67790262  0.72379045     0.06600
Zn1255     Zn  0.10786051  0.64945412  0.68228296     1.49700
Zn1256     Zn  0.04191957  0.65087177  0.71744643     1.49400
Zn1257     Zn  0.11665489  0.70150472  0.73616677     1.49100
Zn1258     Zn  0.08282384  0.69872310  0.65873910     1.49500
O1259       O  0.08646467  0.67419260  0.69784091    -1.83600
O1260       O  0.07712813  0.60421129  0.70159778    -0.74300
O1261       O  0.03918533  0.67387697  0.76393130    -0.74100
O1262       O  0.14534524  0.68416306  0.75909222    -0.73600
O1263       O  0.04292446  0.61158796  0.73697128    -0.74300
O1264       O  0.14968412  0.65843579  0.71104413    -0.73900
O1265       O  0.09167677  0.70744096  0.77671165    -0.74500
O1266       O  0.10734030  0.74514465  0.67463295    -0.73800
O1267       O  0.00435737  0.64717025  0.68178869    -0.74600
O1268       O  0.14351453  0.74620098  0.71477775    -0.74000
O1269       O  0.03626655  0.68621947  0.64277354    -0.74500
O1270       O  0.10644754  0.69477214  0.61593685    -0.74400
O1271       O  0.11969586  0.65680226  0.62640066    -0.74200
C1272       C  0.06107792  0.59930682  0.73139549     0.77600
C1273       C  0.06160531  0.69532881  0.78460553     0.78100
C1274       C  0.15772415  0.66870487  0.74392660     0.77100
C1275       C  0.13296876  0.76051405  0.69422627     0.77500
C1276       C  0.00764938  0.66542438  0.65413924     0.78600
C1277       C  0.11958052  0.67850465  0.60554065     0.77600
C1278       C  0.48157650  0.66609824  0.63249780     0.03600
C1279       C  0.45652023  0.66869441  0.65078680    -0.12500
C1280       C  0.42973570  0.66744028  0.63110309     0.01100
C1281       C  0.42840092  0.66293883  0.59299274    -0.11000
C1282       C  0.45234913  0.65950695  0.57455204     0.03600
C1283       C  0.47888771  0.66157805  0.59421043    -0.10500
H1284       H  0.45814570  0.67209032  0.68021759     0.09200
H1285       H  0.40756486  0.66010703  0.57773541     0.06700
H1286       H  0.99459286  0.65485443  0.58150533     0.06600
C1287       C  0.43860898  0.49662413  0.57277336     0.80700
N1288       N  0.96073781  0.50281502  0.56329010    -0.77600
C1289       C  0.98032866  0.49038275  0.56455713     0.83200
N1290       N  0.96590554  0.95759742  0.57226279    -0.77500
C1291       C  0.48418262  0.96747039  0.58458126     0.83300
N1292       N  0.45912488  0.97304809  0.59128034    -0.79200
Zn1293     Zn  0.15473680  0.53816335  0.96796408     1.49700
Zn1294     Zn  0.14892979  0.60216012  0.93149814     1.49400
Zn1295     Zn  0.20288628  0.61553419  0.48860408     1.49100
Zn1296     Zn  0.20140241  0.58125066  0.90877257     1.49500
O1297       O  0.17590413  0.58343257  0.94870341    -1.83600
O1298       O  0.11111989  0.53160003  0.48155803    -0.74300
O1299       O  0.15431279  0.64248225  0.96183026    -0.74100
O1300       O  0.20482697  0.59129605  0.53241598    -0.73600
O1301       O  0.10319879  0.56700580  0.94589177    -0.74300
O1302       O  0.17421240  0.53822397  0.51988839    -0.73900
O1303       O  0.18726630  0.64620987  0.50756967    -0.74500
O1304       O  0.24807103  0.60670870  0.92534802    -0.73800
O1305       O  0.15791286  0.61663037  0.87614844    -0.74600
O1306       O  0.24783582  0.63955741  0.96944804    -0.74000
O1307       O  0.19733181  0.60559207  0.86639799    -0.74500
O1308       O  0.18915301  0.53465915  0.89028350    -0.74400
O1309       O  0.15558809  0.50263550  0.93356889    -0.74200
C1310       C  0.09339867  0.54290598  0.96811829     0.77600
C1311       C  0.16796203  0.65460368  0.49391758     0.78100
C1312       C  0.19318189  0.56147349  0.54141702     0.77100
C1313       C  0.26278283  0.63095957  0.94726018     0.77500
C1314       C  0.18045420  0.61796429  0.85568322     0.78600
C1315       C  0.17091623  0.50597786  0.90351560     0.77600
C1316       C  0.16086669  0.67755262  0.51494799     0.03600
C1317       C  0.14559546  0.66779789  0.54972945    -0.12500
C1318       C  0.13636330  0.68754837  0.56913291     0.01100
C1319       C  0.14367355  0.71783099  0.55391431    -0.11000
C1320       C  0.15987399  0.72893112  0.52052134     0.03600
C1321       C  0.16806058  0.70839189  0.50061591    -0.10500
H1322       H  0.14002436  0.64443497  0.56108745     0.09200
H1323       H  0.13703868  0.73353689  0.56840659     0.06700
H1324       H  0.17609222  0.71423131  0.97035437     0.06600
C1325       C  0.01803485  0.69030851  0.87435495     0.03600
C1326       C  0.02372324  0.68385266  0.83816222    -0.12500
C1327       C  0.05343475  0.70485560  0.82009964     0.01100
C1328       C  0.07766984  0.73301015  0.83833345    -0.11000
C1329       C  0.07333704  0.73999306  0.87446022     0.03600
C1330       C  0.04303712  0.71867450  0.89214067    -0.10500
H1331       H  0.50687642  0.65848142  0.82738504     0.09200
H1332       H  0.10086226  0.74873240  0.82494462     0.06700
H1333       H  0.03944228  0.72329473  0.92031938     0.06600
Zn1334     Zn  0.36516222  0.57026105  0.93985524     1.49700
Zn1335     Zn  0.43759689  0.58993016  0.90876828     1.49400
Zn1336     Zn  0.43470583  0.64448858  0.95636591     1.49100
Zn1337     Zn  0.42128993  0.58553140  0.49308563     1.49500
O1338       O  0.41188732  0.59684417  0.94865749    -1.83600
O1339       O  0.35898774  0.55981996  0.88602110    -0.74300
O1340       O  0.47782648  0.63283224  0.89070510    -0.74100
O1341       O  0.39746422  0.65165623  0.94736495    -0.73600
O1342       O  0.40742199  0.57052538  0.86443548    -0.74300
O1343       O  0.35068591  0.60235296  0.94708724    -0.73900
O1344       O  0.47538562  0.67193122  0.92132153    -0.74500
O1345       O  0.43165351  0.61426959  0.53564941    -0.73800
O1346       O  0.45153904  0.55909328  0.93108407    -0.74600
O1347       O  0.45012526  0.66214727  0.50859081    -0.74000
O1348       O  0.46368688  0.59884684  0.46924332    -0.74500
O1349       O  0.38168740  0.53849218  0.50967901    -0.74400
O1350       O  0.33781831  0.52707555  0.97177583    -0.74200
C1351       C  0.37736739  0.56146384  0.85972501     0.77600
C1352       C  0.48930720  0.66324943  0.89739220     0.78100
C1353       C  0.36623314  0.63365382  0.94679601     0.77100
C1354       C  0.44475193  0.64499715  0.53751518     0.77500
C1355       C  0.45485855  0.56556098  0.96503896     0.78600
C1356       C  0.35186598  0.52019701  0.49917148     0.77600
C1357       C  0.01947170  0.82985969  0.51248530     0.03600
C1358       C  0.02547053  0.84344791  0.54850601    -0.12500
C1359       C  0.05554743  0.85445457  0.56646847     0.01100
C1360       C  0.07969087  0.85108748  0.54904104    -0.11000
C1361       C  0.07495274  0.83704408  0.51459500     0.03600
C1362       C  0.04466143  0.82622843  0.49587380    -0.10500
H1363       H  0.50469910  0.83972107  0.56686613     0.09200
H1364       H  0.10278353  0.85907499  0.56280976     0.06700
H1365       H  0.04263200  0.82311682  0.97010284     0.06600
Zn1366     Zn  0.17086239  0.83101998  0.89762118     1.49700
Zn1367     Zn  0.12851941  0.79517463  0.96981124     1.49400
Zn1368     Zn  0.20773400  0.82943999  0.97374054     1.49100
Zn1369     Zn  0.17578459  0.87403912  0.97044294     1.49500
O1370       O  0.17084679  0.83247449  0.95222966    -1.83600
O1371       O  0.12745717  0.78930061  0.87837979    -0.74300
O1372       O  0.13922778  0.76249897  0.49974958    -0.69900
O1373       O  0.23560444  0.82794666  0.93441721    -0.73600
O1374       O  0.09940766  0.76784115  0.92934890    -0.74300
O1375       O  0.21254128  0.82902113  0.88183771    -0.73900
O1376       O  0.19331262  0.78478176  0.49955514    -0.74500
O1377       O  0.21983160  0.90500039  0.49826104    -0.73800
O1378       O  0.09981431  0.80766612  0.49210558    -0.74600
O1379       O  0.24179162  0.87352366  0.50372163    -0.74000
O1380       O  0.13132903  0.86180363  0.49775348    -0.74500
O1381       O  0.17674794  0.90088033  0.92855661    -0.74400
O1382       O  0.17206489  0.87340839  0.87742385    -0.74200
C1383       C  0.10151135  0.76742115  0.89482358     0.77600
C1384       C  0.16460075  0.76046375  0.50573607     0.78100
C1385       C  0.23530339  0.82785310  0.89972438     0.77100
C1386       C  0.24382218  0.90144454  0.50724890     0.77500
C1387       C  0.10327042  0.83540345  0.49982490     0.78600
C1388       C  0.17434887  0.89845901  0.89395830     0.77600
Zn1389     Zn  0.36488711  0.79615989  0.96342535     1.49700
Zn1390     Zn  0.41695157  0.85074960  0.90998568     1.49400
Zn1391     Zn  0.43516929  0.83085396  0.49655971     1.49100
Zn1392     Zn  0.43353824  0.79515885  0.93800010     1.49500
O1393       O  0.41133557  0.81884893  0.95071799    -1.83600
O1394       O  0.33586762  0.80894384  0.93142971    -0.74300
O1395       O  0.43994304  0.89648334  0.93464422    -0.74100
O1396       O  0.40621340  0.82960588  0.53929569    -0.73600
O1397       O  0.37210730  0.84276384  0.89091712    -0.74300
O1398       O  0.35666179  0.79746056  0.51553146    -0.73900
O1399       O  0.46788271  0.86938950  0.47072968    -0.74500
O1400       O  0.47906067  0.80800219  0.96490274    -0.73800
O1401       O  0.43987740  0.84394979  0.86531223    -0.74600
O1402       O  0.46335411  0.81465272  0.51773321    -0.74000
O1403       O  0.44192828  0.80017039  0.88383909    -0.74500
O1404       O  0.39744448  0.74891686  0.94645346    -0.74400
O1405       O  0.35087220  0.74979065  0.95409408    -0.74200
C1406       C  0.34263200  0.82682322  0.90266255     0.77600
C1407       C  0.45218247  0.89378131  0.96439474     0.78100
C1408       C  0.37514362  0.81218948  0.54281672     0.77100
C1409       C  0.48541633  0.81441745  0.49854443     0.77500
C1410       C  0.44471524  0.82020550  0.85888944     0.78600
C1411       C  0.36635332  0.73462982  0.95013741     0.77600
C1412       C  0.31627030  0.82967347  0.88230481     0.03600
C1413       C  0.32136209  0.84072713  0.84551452    -0.12500
C1414       C  0.29751104  0.84414533  0.82630237     0.01100
C1415       C  0.26863805  0.83728764  0.84369500    -0.11000
C1416       C  0.26329117  0.82822729  0.88052095     0.03600
C1417       C  0.28688172  0.82357696  0.89955409    -0.10500
H1418       H  0.34414665  0.84735095  0.83193115     0.09200
H1419       H  0.25142885  0.84173605  0.82908824     0.06700
H1420       H  0.28306392  0.81661737  0.92817112     0.06600
C1421       C  0.32575109  0.98458175  0.51943519     0.03600
C1422       C  0.33385995  0.97896069  0.55502626    -0.12500
C1423       C  0.31285965  0.95000525  0.57439658     0.01100
C1424       C  0.28388063  0.92578002  0.55808396    -0.11000
C1425       C  0.27455826  0.92981355  0.52310866     0.03600
C1426       C  0.29540095  0.95969836  0.50388872    -0.10500
H1427       H  0.35877654  0.50115518  0.56856733     0.09200
H1428       H  0.26815685  0.90338506  0.57305782     0.06700
H1429       H  0.28878289  0.96273303  0.97712260     0.06600
C1430       C  0.17533332  0.97850641  0.87572996     0.03600
C1431       C  0.16293609  0.97294244  0.83955655    -0.12500
C1432       C  0.15423088  0.94332023  0.82103352     0.01100
C1433       C  0.16014404  0.92017926  0.83824128    -0.11000
C1434       C  0.17267493  0.92514037  0.87394634     0.03600
C1435       C  0.17992716  0.95437086  0.89247550    -0.10500
H1436       H  0.15395951  0.48922606  0.83196804     0.09200
H1437       H  0.15340400  0.89733947  0.82447198     0.06700
H1438       H  0.18878312  0.95827002  0.92045512     0.06600
C1439       C  0.34776811  0.65008488  0.94648071     0.80700
N1440       N  0.36413904  0.68303986  0.94806917    -0.77600
C1441       C  0.34781615  0.69924697  0.94948568     0.83200
N1442       N  0.31468585  0.68242412  0.94964902    -0.77500
C1443       C  0.29816603  0.64925201  0.94736312     0.83300
N1444       N  0.31468552  0.63300997  0.94570703    -0.79200
C1445       C  0.49730275  0.91969290  0.52435588    -0.01300
C1446       C  0.46668243  0.90794751  0.50703018     0.08300
C1447       C  0.43975602  0.90315261  0.52818311    -0.01500
C1448       C  0.44494373  0.91274775  0.56519680    -0.01500
C1449       C  0.47670006  0.93351550  0.57773989     0.08500
C1450       C  0.50148400  0.93036957  0.56082759    -0.01700
Br1451     Br  0.94031637  0.88354035  0.61745076    -0.00200
Br1452     Br  0.53416340  0.92361925  0.49760841    -0.00300
Br1453     Br  0.41065104  0.90241770  0.59890136    -0.00200
Br1454     Br  0.38009380  0.88586006  0.96832396    -0.00200
C1455       C  0.46130292  0.56258719  0.52592976    -0.01300
C1456       C  0.45123360  0.54886471  0.49037498     0.08300
C1457       C  0.41656108  0.50828164  0.98690604    -0.01500
C1458       C  0.41058604  0.49823312  0.51844438    -0.01500
C1459       C  0.42285791  0.51180335  0.55350249     0.08500
C1460       C  0.44171782  0.54602003  0.55609695    -0.01700
Br1461     Br  0.45210734  0.56627292  0.60372736    -0.00200
Br1462     Br  0.50209423  0.60339147  0.53358494    -0.00300
Br1463     Br  0.37132483  0.94917406  0.01609766    -0.00200
Br1464     Br  0.40088523  0.49182103  0.93813910    -0.00200
C1465       C  0.03329203  0.51118855  0.97816474    -0.01300
C1466       C  0.06413447  0.53266004  0.49530502     0.08300
C1467       C  0.06798414  0.53917547  0.53342298    -0.01500
C1468       C  0.04057756  0.52535467  0.55648986    -0.01500
C1469       C  0.00943274  0.50596400  0.54128929     0.08500
C1470       C  0.00554837  0.50115057  0.50284606    -0.01700
Br1471     Br  0.96623128  0.97436039  0.48604054    -0.00200
Br1472     Br  0.02684937  0.49340197  0.92938726    -0.00300
Br1473     Br  0.04539721  0.53276259  0.60865038    -0.00200
Br1474     Br  0.11089222  0.56750970  0.55402774    -0.00200
C1475       C  0.43328883  0.05038978  0.74974237    -0.01300
C1476       C  0.44832545  0.04702880  0.78121340     0.08300
C1477       C  0.42695683  0.02091576  0.80346621    -0.01500
C1478       C  0.40625028  0.99084130  0.78576944    -0.01500
C1479       C  0.40238525  0.99105312  0.74681864     0.08500
C1480       C  0.41093553  0.02158014  0.73071003    -0.01700
Br1481     Br  0.39024250  0.02395633  0.68652399    -0.00200
Br1482     Br  0.44725702  0.09328438  0.73152691    -0.00300
Br1483     Br  0.38623403  0.95174999  0.81549029    -0.00200
Br1484     Br  0.44459602  0.52631548  0.85596820    -0.00200
C1485       C  0.07109389  0.57904709  0.82960538    -0.01300
C1486       C  0.06547846  0.54755065  0.82427929     0.08300
C1487       C  0.07520028  0.54130610  0.79048710    -0.01500
C1488       C  0.07235373  0.55659976  0.75881602    -0.01500
C1489       C  0.06711687  0.58321496  0.76302446     0.08500
C1490       C  0.07098736  0.59677865  0.79891631    -0.01700
Br1491     Br  0.07679397  0.63917855  0.80754230    -0.00200
Br1492     Br  0.56925018  0.58789480  0.87212441    -0.00300
Br1493     Br  0.07345003  0.53934258  0.71149550    -0.00200
Br1494     Br  0.09040546  0.51099172  0.78893043    -0.00200
C1495       C  0.98312183  0.96134461  0.72764782    -0.01300
C1496       C  0.97987217  0.95606752  0.76602639     0.08300
C1497       C  0.98837437  0.93477733  0.78216717    -0.01500
C1498       C  0.01009985  0.92849881  0.76350587    -0.01500
C1499       C  0.01723741  0.93790799  0.72650140     0.08500
C1500       C  0.00063762  0.95049207  0.70746779    -0.01700
Br1501     Br  0.00735853  0.95879372  0.65545959    -0.00200
Br1502     Br  0.97351403  0.99155175  0.70386596    -0.00300
Br1503     Br  0.03361347  0.91200696  0.79020998    -0.00200
Br1504     Br  0.44205676  0.93582864  0.75163288    -0.00200
C1505       C  0.49839853  0.49296962  0.27353073     0.80700
N1506       N  0.51513962  0.01343952  0.28007105    -0.77600
C1507       C  0.52022093  0.03335319  0.30901787     0.83200
N1508       N  0.99884058  0.02777974  0.34029255    -0.77500
C1509       C  0.98117899  0.54026767  0.28138600     0.83300
N1510       N  0.97434362  0.51719543  0.25559198    -0.79200
C1511       C  0.65443966  0.34942850  0.19808597     0.80700
N1512       N  0.68746289  0.36665507  0.19731432    -0.77600
C1513       C  0.70427473  0.35073739  0.19840037     0.83200
N1514       N  0.68808395  0.31764524  0.19987870    -0.77500
C1515       C  0.65507654  0.30051270  0.19968529     0.83300
N1516       N  0.63815505  0.31631266  0.19910228    -0.79200
C1517       C  0.84908306  0.32538478  0.13490459     0.03600
C1518       C  0.84088129  0.29454423  0.15086651    -0.12500
C1519       C  0.84523271  0.27060150  0.13129379     0.01100
C1520       C  0.85533754  0.27706866  0.09461870    -0.11000
C1521       C  0.86381923  0.30712981  0.07832366     0.03600
C1522       C  0.86214344  0.33124848  0.09921748    -0.10500
H1523       H  0.83188238  0.28952596  0.17874189     0.09200
H1524       H  0.85827621  0.25927750  0.07905971     0.06700
H1525       H  0.87042391  0.35436660  0.08739549     0.06600
Zn1526     Zn  0.59179274  0.38072669  0.24030977     1.49700
Zn1527     Zn  0.54828252  0.37854400  0.18263578     1.49400
Zn1528     Zn  0.60752202  0.45199392  0.21769804     1.49100
Zn1529     Zn  0.62298554  0.41407146  0.16087875     1.49500
O1530       O  0.59335567  0.40791321  0.20025040    -1.83600
O1531       O  0.54625314  0.35193148  0.26550178    -0.74300
O1532       O  0.53085291  0.40646807  0.17674011    -0.74100
O1533       O  0.62599362  0.45776724  0.27164006    -0.73600
O1534       O  0.51499160  0.34353666  0.21752260    -0.74300
O1535       O  0.62068404  0.40894556  0.27995992    -0.73900
O1536       O  0.56388817  0.44972346  0.21266748    -0.74500
O1537       O  0.65456885  0.46271299  0.14418003    -0.73800
O1538       O  0.54446634  0.35881976  0.13359354    -0.74600
O1539       O  0.64368074  0.49057418  0.18466613    -0.74000
O1540       O  0.59653233  0.38790555  0.11691234    -0.74500
O1541       O  0.64652124  0.39168964  0.17838303    -0.74400
O1542       O  0.61220757  0.35612616  0.22049010    -0.74200
C1543       C  0.51783736  0.33850519  0.25115290     0.77600
C1544       C  0.53722268  0.43178435  0.19472679     0.78100
C1545       C  0.63102018  0.43806606  0.29082560     0.77100
C1546       C  0.65962471  0.49021191  0.15647027     0.77500
C1547       C  0.56670336  0.36666979  0.10993970     0.78600
C1548       C  0.63665387  0.36657510  0.19890291     0.77600
C1549       C  0.68853352  0.02285747  0.13150263     0.03600
C1550       C  0.68364620  0.02697807  0.09415496    -0.12500
C1551       C  0.70582851  0.05580056  0.07504293     0.01100
C1552       C  0.73440551  0.07981052  0.09273913    -0.11000
C1553       C  0.74056983  0.07653488  0.12944782     0.03600
C1554       C  0.71700900  0.04805071  0.14895102    -0.10500
H1555       H  0.65622309  0.50773434  0.08593985     0.09200
H1556       H  0.75154538  0.10182547  0.07807802     0.06700
H1557       H  0.72090470  0.04522727  0.17762251     0.06600
C1558       C  0.98534794  0.31787460  0.26608709     0.03600
C1559       C  0.98155046  0.32853615  0.30100245    -0.12500
C1560       C  0.95223662  0.31027924  0.32075195     0.01100
C1561       C  0.92715844  0.28061273  0.30630841    -0.11000
C1562       C  0.93065300  0.26889586  0.27251627     0.03600
C1563       C  0.95965881  0.28785816  0.25213690    -0.10500
H1564       H  0.00111200  0.35116232  0.31252073     0.09200
H1565       H  0.90475533  0.26631538  0.32174261     0.06700
H1566       H  0.96202957  0.27952124  0.22529084     0.06600
Zn1567     Zn  0.80057840  0.12869713  0.22218682     1.49700
Zn1568     Zn  0.83570660  0.20699667  0.22198274     1.49400
Zn1569     Zn  0.87763707  0.17114142  0.22192781     1.49100
Zn1570     Zn  0.83842844  0.17081084  0.14786894     1.49500
O1571       O  0.83815536  0.16936339  0.20223262    -1.83600
O1572       O  0.76924099  0.13879597  0.25010281    -0.74300
O1573       O  0.87504441  0.23608660  0.25435010    -0.74100
O1574       O  0.86722457  0.12942448  0.25041521    -0.73600
O1575       O  0.79103980  0.19256145  0.24282380    -0.74300
O1576       O  0.81339095  0.09710637  0.24546271    -0.73900
O1577       O  0.90740455  0.21532860  0.24661187    -0.74500
O1578       O  0.87975807  0.16695768  0.13008909    -0.73800
O1579       O  0.83906928  0.23866371  0.18411725    -0.74600
O1580       O  0.90511248  0.16953099  0.18219506    -0.74000
O1581       O  0.84190540  0.21676203  0.13156535    -0.74500
O1582       O  0.79317158  0.12857914  0.13071221    -0.74400
O1583       O  0.77175950  0.10141560  0.18251393    -0.74200
C1584       C  0.76729555  0.16469459  0.25211266     0.77600
C1585       C  0.90284044  0.23827036  0.25741037     0.78100
C1586       C  0.84128570  0.10133699  0.25405128     0.77100
C1587       C  0.90337893  0.16689423  0.14761426     0.77500
C1588       C  0.84150355  0.24012804  0.14957130     0.78600
C1589       C  0.77032310  0.10366474  0.14814789     0.77600
Zn1590     Zn  0.80130810  0.36565539  0.20752755     1.49700
Zn1591     Zn  0.85815689  0.42488832  0.16310847     1.49400
Zn1592     Zn  0.79984033  0.43645706  0.18942293     1.49100
Zn1593     Zn  0.83771880  0.42950030  0.24923841     1.49500
O1594       O  0.82322717  0.41326383  0.20005178    -1.83600
O1595       O  0.81779238  0.34081294  0.17447422    -0.74300
O1596       O  0.84510877  0.44174379  0.11595729    -0.74100
O1597       O  0.75388313  0.40045951  0.19703332    -0.73600
O1598       O  0.86171507  0.38205705  0.14830952    -0.74300
O1599       O  0.75470017  0.35324228  0.19937268    -0.73900
O1600       O  0.80400099  0.44756844  0.13562413    -0.74500
O1601       O  0.84019762  0.47279727  0.26296083    -0.73800
O1602       O  0.89613286  0.46453064  0.19158510    -0.74600
O1603       O  0.81254932  0.48004582  0.21953060    -0.74000
O1604       O  0.88027667  0.43548585  0.24154230    -0.74500
O1605       O  0.81710075  0.39791102  0.29003129    -0.74400
O1606       O  0.80367877  0.35195992  0.26064977    -0.74200
C1607       C  0.84290676  0.35084468  0.15386912     0.77600
C1608       C  0.82265372  0.44863758  0.10997224     0.78100
C1609       C  0.73962083  0.36916790  0.19823404     0.77100
C1610       C  0.82959291  0.49018914  0.24891066     0.77500
C1611       C  0.89522297  0.46319516  0.22669773     0.78600
C1612       C  0.80804045  0.36777618  0.29037973     0.77600
C1613       C  0.84352812  0.02110555  0.26280949     0.03600
C1614       C  0.85889375  0.02725774  0.29764900    -0.12500
C1615       C  0.86591322  0.05525351  0.31807077     0.01100
C1616       C  0.85876441  0.07810762  0.30351788    -0.11000
C1617       C  0.84428760  0.07364666  0.26910285     0.03600
C1618       C  0.83603788  0.04464829  0.24886831    -0.10500
H1619       H  0.86476403  0.00994110  0.30942392     0.09200
H1620       H  0.86494373  0.10000524  0.31914573     0.06700
H1621       H  0.82494317  0.04103785  0.22205518     0.06600
C1622       C  0.69082991  0.17178948  0.26477278     0.03600
C1623       C  0.68182836  0.15805675  0.30028256    -0.12500
C1624       C  0.69955786  0.14574572  0.31823852     0.01100
C1625       C  0.72680234  0.14786017  0.30110727    -0.11000
C1626       C  0.73727414  0.16245363  0.26706687     0.03600
C1627       C  0.71908535  0.17420075  0.24844153    -0.10500
H1628       H  0.66027597  0.15566066  0.31329641     0.09200
H1629       H  0.74092745  0.13894651  0.31493561     0.06700
H1630       H  0.72661061  0.18469393  0.22135309     0.06600
Zn1631     Zn  0.61969640  0.15867382  0.18682351     1.49700
Zn1632     Zn  0.55089492  0.15338743  0.22252034     1.49400
Zn1633     Zn  0.62224052  0.20602266  0.24111984     1.49100
Zn1634     Zn  0.58978586  0.20303756  0.16242906     1.49500
O1635       O  0.59430157  0.17952261  0.20153954    -1.83600
O1636       O  0.59904158  0.11705149  0.21675700    -0.74300
O1637       O  0.54401236  0.17397096  0.26854862    -0.74100
O1638       O  0.65146505  0.18939289  0.26225610    -0.73600
O1639       O  0.55883726  0.11947016  0.24630269    -0.74300
O1640       O  0.66541975  0.17709793  0.20989928    -0.73900
O1641       O  0.59585374  0.20862353  0.28236211    -0.74500
O1642       O  0.61331288  0.24972466  0.17885326    -0.73800
O1643       O  0.51245298  0.14630812  0.18590455    -0.74600
O1644       O  0.64788102  0.25118235  0.22170358    -0.74000
O1645       O  0.54192632  0.18758460  0.14786373    -0.74500
O1646       O  0.61409689  0.19921622  0.11928538    -0.74400
O1647       O  0.62769265  0.16150979  0.13005064    -0.74200
C1648       C  0.58047022  0.11096997  0.24464063     0.77600
C1649       C  0.56560283  0.19503009  0.29012588     0.78100
C1650       C  0.66882954  0.18062337  0.24453597     0.77100
C1651       C  0.63786133  0.26525257  0.20008233     0.77500
C1652       C  0.51403662  0.16470946  0.15904297     0.78600
C1653       C  0.62722430  0.18285416  0.10884152     0.77600
C1654       C  0.97969751  0.15884737  0.13207884     0.03600
C1655       C  0.95603516  0.16440143  0.14898954    -0.12500
C1656       C  0.92923888  0.16252368  0.12883933     0.01100
C1657       C  0.92638456  0.15445648  0.09145234    -0.11000
C1658       C  0.94876690  0.14775820  0.07429030     0.03600
C1659       C  0.97541198  0.15035731  0.09449289    -0.10500
H1660       H  0.95888067  0.17075538  0.17780708     0.09200
H1661       H  0.90585885  0.15199296  0.07586283     0.06700
H1662       H  0.49689934  0.14900679  0.08736590     0.06600
C1663       C  0.01451062  0.05237947  0.03586342     0.80700
N1664       N  0.47126243  0.00960221  0.06452095    -0.77600
C1665       C  0.48924876  0.99551636  0.06242134     0.83200
N1666       N  0.46809117  0.45892070  0.06762114    -0.77500
C1667       C  0.93566348  0.44931735  0.07800062     0.83300
N1668       N  0.91884054  0.46531943  0.07702221    -0.79200
Zn1669     Zn  0.64940188  0.04852035  0.46478259     1.49700
Zn1670     Zn  0.66081718  0.12024638  0.42888021     1.49400
Zn1671     Zn  0.70860651  0.11824842  0.98585729     1.49100
Zn1672     Zn  0.70283662  0.08757524  0.40804471     1.49500
O1673       O  0.67866426  0.09306612  0.44687813    -1.83600
O1674       O  0.61629612  0.03316788  0.97570458    -0.74300
O1675       O  0.66692711  0.15802015  0.46331092    -0.74100
O1676       O  0.71085996  0.09320133  0.02896721    -0.73600
O1677       O  0.61365072  0.09101368  0.42881540    -0.74300
O1678       O  0.67864110  0.04028460  0.01653187    -0.73900
O1679       O  0.69400816  0.14951448  0.00713318    -0.74500
O1680       O  0.74935461  0.10980676  0.42425013    -0.73800
O1681       O  0.67434023  0.13696708  0.37715190    -0.74600
O1682       O  0.75140994  0.14490540  0.46689158    -0.74000
O1683       O  0.70176017  0.11197087  0.36409198    -0.74500
O1684       O  0.68655185  0.04027024  0.39135715    -0.74400
O1685       O  0.64680582  0.01098657  0.43075394    -0.74200
C1686       C  0.59661168  0.06637159  0.44909985     0.77600
C1687       C  0.67364752  0.15731760  0.99531404     0.78100
C1688       C  0.69813632  0.06321840  0.03806236     0.77100
C1689       C  0.76520841  0.13469495  0.44499081     0.77500
C1690       C  0.69090705  0.13055413  0.35495196     0.78600
C1691       C  0.66398294  0.01249593  0.40292493     0.77600
C1692       C  0.66714817  0.18051046  0.01712379     0.03600
C1693       C  0.65292176  0.17149171  0.05262421    -0.12500
C1694       C  0.64350024  0.19128684  0.07190592     0.01100
C1695       C  0.65004378  0.22107615  0.05593371    -0.11000
C1696       C  0.66529870  0.23152788  0.02192371     0.03600
C1697       C  0.67332484  0.21081771  0.00216198    -0.10500
H1698       H  0.64816459  0.14863530  0.06461055     0.09200
H1699       H  0.64332025  0.23681910  0.07018349     0.06700
H1700       H  0.68635779  0.22467961  0.47835249     0.06600
C1701       C  0.52261591  0.18574652  0.38209788     0.03600
C1702       C  0.52829987  0.17978435  0.34557550    -0.12500
C1703       C  0.55660468  0.20287558  0.32617674     0.01100
C1704       C  0.57955828  0.23230460  0.34338657    -0.11000
C1705       C  0.57587461  0.23886132  0.37974312     0.03600
C1706       C  0.54679338  0.21564459  0.39879534    -0.10500
H1707       H  0.00951907  0.16724951  0.32322447     0.09200
H1708       H  0.60162245  0.24954087  0.32892050     0.06700
H1709       H  0.54347392  0.22028228  0.42705915     0.06600
Zn1710     Zn  0.86905173  0.07384151  0.43511235     1.49700
Zn1711     Zn  0.94157348  0.09523543  0.40280804     1.49400
Zn1712     Zn  0.93695607  0.14834536  0.45172961     1.49100
Zn1713     Zn  0.92326767  0.07898507  0.98360856     1.49500
O1714       O  0.91555497  0.10074302  0.44393326    -1.83600
O1715       O  0.86226158  0.06080876  0.38172217    -0.74300
O1716       O  0.97973623  0.13893628  0.38441372    -0.74100
O1717       O  0.89960613  0.15465882  0.44087075    -0.73600
O1718       O  0.91070126  0.07237969  0.35927055    -0.74300
O1719       O  0.85328632  0.10510832  0.44070373    -0.73900
O1720       O  0.97851653  0.17683588  0.41879480    -0.74500
O1721       O  0.93215016  0.10510568  0.03047799    -0.73800
O1722       O  0.96176769  0.06957681  0.42424875    -0.74600
O1723       O  0.94625463  0.15435839  0.00940046    -0.74000
O1724       O  0.96757461  0.08883995  0.97001898    -0.74500
O1725       O  0.88457451  0.03129800  0.99600360    -0.74400
O1726       O  0.84316855  0.03265992  0.46892812    -0.74200
C1727       C  0.88021823  0.06185851  0.35519717     0.77600
C1728       C  0.99193079  0.16895648  0.39348653     0.78100
C1729       C  0.86843109  0.13636004  0.44001831     0.77100
C1730       C  0.94238194  0.13528305  0.03602716     0.77500
C1731       C  0.96652771  0.07752257  0.45789050     0.78600
C1732       C  0.85382259  0.01667544  0.98875077     0.77600
C1733       C  0.52142144  0.32372242  0.02130505     0.03600
C1734       C  0.52777948  0.33789412  0.05697089    -0.12500
C1735       C  0.55847014  0.35012077  0.07401160     0.01100
C1736       C  0.58269086  0.34733924  0.05635508    -0.11000
C1737       C  0.57731013  0.33274519  0.02224501     0.03600
C1738       C  0.54661738  0.32065594  0.00434893    -0.10500
H1739       H  0.00917095  0.34654784  0.06334915     0.09200
H1740       H  0.60626398  0.35646743  0.06949519     0.06700
H1741       H  0.53986653  0.31276872  0.47394572     0.06600
Zn1742     Zn  0.67179408  0.33623973  0.39926347     1.49700
Zn1743     Zn  0.63219027  0.29717310  0.47203297     1.49400
Zn1744     Zn  0.71054902  0.33485591  0.47468736     1.49100
Zn1745     Zn  0.67478426  0.37664480  0.47347951     1.49500
O1746       O  0.67264169  0.33647446  0.45373961    -1.83600
O1747       O  0.62793128  0.29192331  0.38137070    -0.74300
O1748       O  0.64237752  0.26225827  0.99872779    -0.69900
O1749       O  0.73851608  0.33362190  0.43512554    -0.73600
O1750       O  0.60369444  0.26761339  0.43330240    -0.74300
O1751       O  0.71575707  0.33658273  0.38304029    -0.73900
O1752       O  0.69660516  0.28770138  0.00077464    -0.74500
O1753       O  0.71996944  0.40656438  0.99774646    -0.73800
O1754       O  0.60255329  0.30539866  0.99701935    -0.74600
O1755       O  0.74330344  0.37630426  0.00190603    -0.74000
O1756       O  0.63248176  0.35988530  0.00221218    -0.74500
O1757       O  0.67322442  0.40480925  0.43400292    -0.74400
O1758       O  0.67006630  0.37920540  0.38186595    -0.74200
C1759       C  0.60391313  0.26797791  0.39875143     0.77600
C1760       C  0.66851524  0.26214771  0.00613118     0.78100
C1761       C  0.73865420  0.33494696  0.40046048     0.77100
C1762       C  0.74462759  0.40386140  0.00600488     0.77500
C1763       C  0.60545977  0.33263263  0.00580740     0.78600
C1764       C  0.67065811  0.40325996  0.39940175     0.77600
Zn1765     Zn  0.86709524  0.29828601  0.45968364     1.49700
Zn1766     Zn  0.92020732  0.35218054  0.40744151     1.49400
Zn1767     Zn  0.93751436  0.33957347  0.99158205     1.49100
Zn1768     Zn  0.93672539  0.29704534  0.43765099     1.49500
O1769       O  0.91394675  0.32065593  0.44872958    -1.83600
O1770       O  0.83855062  0.31221716  0.42854638    -0.74300
O1771       O  0.94691693  0.39813060  0.43160689    -0.74100
O1772       O  0.90748451  0.33220198  0.03541076    -0.73600
O1773       O  0.87529533  0.34651335  0.38886838    -0.74300
O1774       O  0.85768376  0.29825442  0.01335733    -0.73900
O1775       O  0.96203815  0.38114908  0.96652247    -0.74500
O1776       O  0.98221982  0.31032201  0.46533812    -0.73800
O1777       O  0.94151237  0.34258108  0.36295964    -0.74600
O1778       O  0.97270777  0.33163655  0.01035885    -0.74000
O1779       O  0.94561704  0.30061862  0.38392610    -0.74500
O1780       O  0.90032979  0.25112695  0.44544615    -0.74400
O1781       O  0.85359613  0.25239887  0.44914255    -0.74200
C1782       C  0.84566852  0.33097973  0.40056533     0.77600
C1783       C  0.95720981  0.39489852  0.46257893     0.78100
C1784       C  0.87682785  0.31352387  0.04021738     0.77100
C1785       C  0.98979887  0.32159612  0.99484554     0.77500
C1786       C  0.94735590  0.31930042  0.35796325     0.78600
C1787       C  0.86910857  0.23713970  0.44665577     0.77600
C1788       C  0.81951187  0.33531369  0.38129512     0.03600
C1789       C  0.82422602  0.34627163  0.34451679    -0.12500
C1790       C  0.80099341  0.35130213  0.32620663     0.01100
C1791       C  0.77285932  0.34592858  0.34440307    -0.11000
C1792       C  0.76719301  0.33600861  0.38096921     0.03600
C1793       C  0.79056962  0.33025768  0.39926734    -0.10500
H1794       H  0.84637286  0.35166483  0.33023885     0.09200
H1795       H  0.75609511  0.35133625  0.33032359     0.06700
H1796       H  0.78679221  0.32288437  0.42775044     0.06600
C1797       C  0.82383644  0.48971674  0.01807801     0.03600
C1798       C  0.83292164  0.48475932  0.05365714    -0.12500
C1799       C  0.81481480  0.45439438  0.07208097     0.01100
C1800       C  0.78646565  0.42899616  0.05562963    -0.11000
C1801       C  0.77527671  0.43288375  0.02156494     0.03600
C1802       C  0.79410386  0.46350644  0.00281945    -0.10500
H1803       H  0.86242116  0.99693891  0.05563528     0.09200
H1804       H  0.77246273  0.40590075  0.07001770     0.06700
H1805       H  0.78735647  0.46847816  0.47737907     0.06600
C1806       C  0.66605110  0.48173914  0.38258640     0.03600
C1807       C  0.65448118  0.47605758  0.34609680    -0.12500
C1808       C  0.64807879  0.44740311  0.32717160     0.01100
C1809       C  0.65547567  0.42519043  0.34438848    -0.11000
C1810       C  0.66689062  0.42967139  0.38055410     0.03600
C1811       C  0.67164063  0.45808878  0.39969658    -0.10500
H1812       H  0.64120920  0.99383121  0.33330120     0.09200
H1813       H  0.65087830  0.40322223  0.33008653     0.06700
H1814       H  0.67983359  0.46197537  0.42792313     0.06600
C1815       C  0.84982138  0.15264196  0.43977373     0.80700
N1816       N  0.86640348  0.18555424  0.44181652    -0.77600
C1817       C  0.85039258  0.20193302  0.44475750     0.83200
N1818       N  0.81736237  0.18540267  0.44598430    -0.77500
C1819       C  0.80052175  0.15229219  0.44347796     0.83300
N1820       N  0.81669069  0.13572387  0.44030947    -0.79200
C1821       C  0.95205658  0.40087861  0.03549440    -0.01300
C1822       C  0.93369070  0.39880098  0.00338191     0.08300
C1823       C  0.90283407  0.39631150  0.00859303    -0.01500
C1824       C  0.89470496  0.40245521  0.04373756    -0.01500
C1825       C  0.91831751  0.41355507  0.07165345     0.08500
C1826       C  0.93972875  0.40175066  0.07019289    -0.01700
Br1827     Br  0.46233889  0.39259500  0.11299299    -0.00200
Br1828     Br  0.99519040  0.40636450  0.03393518    -0.00300
Br1829     Br  0.85068626  0.39104663  0.05653668    -0.00200
Br1830     Br  0.88758975  0.39288053  0.45809174    -0.00200
C1831       C  0.03378100  0.12267894  0.97907159    -0.01300
C1832       C  0.01887327  0.10266374  0.94815213     0.08300
C1833       C  0.93228277  0.02383342  0.48630965    -0.01500
C1834       C  0.03062992  0.06287982  0.97181684    -0.01500
C1835       C  0.03234282  0.07617130  0.00707058     0.08500
C1836       C  0.03804534  0.10805180  0.01029033    -0.01700
Br1837     Br  0.04481194  0.12800609  0.05782200    -0.00200
Br1838     Br  0.03533872  0.16388878  0.98256650    -0.00300
Br1839     Br  0.86055680  0.44312155  0.50902134    -0.00200
Br1840     Br  0.90819585  0.00608175  0.44115314    -0.00200
C1841       C  0.53911192  0.02942913  0.46076845    -0.01300
C1842       C  0.56979547  0.03460831  0.98917661     0.08300
C1843       C  0.57428123  0.04691295  0.02521944    -0.01500
C1844       C  0.54738246  0.03605187  0.04837955    -0.01500
C1845       C  0.51693042  0.01031022  0.03709104     0.08500
C1846       C  0.51195812  0.00047208  0.99985299    -0.01700
Br1847     Br  0.46488095  0.47203469  0.97830895    -0.00200
Br1848     Br  0.53130716  0.00259071  0.41799045    -0.00300
Br1849     Br  0.55118737  0.05973826  0.09240418    -0.00200
Br1850     Br  0.61744815  0.07796871  0.04336960    -0.00200
C1851       C  0.94145345  0.55196690  0.25666470    -0.01300
C1852       C  0.95434443  0.54648164  0.28873007     0.08300
C1853       C  0.93121895  0.51985995  0.30931454    -0.01500
C1854       C  0.90946889  0.49092927  0.28987510    -0.01500
C1855       C  0.90724508  0.49280450  0.25073753     0.08500
C1856       C  0.91884347  0.52445545  0.23583369    -0.01700
Br1857     Br  0.90372462  0.53035381  0.18924903    -0.00200
Br1858     Br  0.96042389  0.59570597  0.23862461    -0.00300
Br1859     Br  0.88733517  0.45056953  0.31740972    -0.00200
Br1860     Br  0.89906637  0.95490317  0.36990640    -0.00200
C1861       C  0.56359494  0.07976939  0.33980539    -0.01300
C1862       C  0.55255344  0.04776905  0.32792969     0.08300
C1863       C  0.57592961  0.04562855  0.30603229    -0.01500
C1864       C  0.58952586  0.06845792  0.27693945    -0.01500
C1865       C  0.58474784  0.09548822  0.27791520     0.08500
C1866       C  0.57830211  0.10421015  0.31285153    -0.01700
Br1867     Br  0.59032986  0.14825987  0.32409695    -0.00200
Br1868     Br  0.05031049  0.09391180  0.38776753    -0.00300
Br1869     Br  0.61380505  0.06313482  0.23840350    -0.00200
Br1870     Br  0.57772723  0.00617438  0.30668646    -0.00200
C1871       C  0.50912808  0.48710442  0.20996587    -0.01300
C1872       C  0.49340590  0.47217164  0.24293868     0.08300
C1873       C  0.47908613  0.43848904  0.24823425    -0.01500
C1874       C  0.48721855  0.42119330  0.22391938    -0.01500
C1875       C  0.51152845  0.43902701  0.19760789     0.08500
C1876       C  0.51906258  0.47034064  0.18725100    -0.01700
Br1877     Br  0.54833915  0.49146379  0.14689787    -0.00200
Br1878     Br  0.52070134  0.53138980  0.19902578    -0.00300
Br1879     Br  0.47003390  0.37511710  0.23088241    -0.00200
Br1880     Br  0.94949265  0.42664093  0.28862579    -0.00200
C1881       C  0.48820563  0.49754595  0.75278097     0.80700
N1882       N  0.51067877  0.01181713  0.76788060    -0.77600
C1883       C  0.51482253  0.03012420  0.79804734     0.83200
N1884       N  0.00848867  0.04651151  0.80992503    -0.77500
C1885       C  0.97696671  0.50212605  0.83647480     0.83300
N1886       N  0.97065759  0.47098099  0.83320566    -0.79200
C1887       C  0.65168338  0.34808598  0.69421944     0.80700
N1888       N  0.68465254  0.36452527  0.69319044    -0.77600
C1889       C  0.70068114  0.34785141  0.69498476     0.83200
N1890       N  0.68381864  0.31484944  0.69733077    -0.77500
C1891       C  0.65086533  0.29854735  0.69744419     0.83300
N1892       N  0.63467621  0.31504368  0.69623119    -0.79200
C1893       C  0.84648744  0.32329073  0.63503036     0.03600
C1894       C  0.83509740  0.29118149  0.64904801    -0.12500
C1895       C  0.83987624  0.26770897  0.62938985     0.01100
C1896       C  0.85263270  0.27562818  0.59378453    -0.11000
C1897       C  0.86433772  0.30714427  0.57948705     0.03600
C1898       C  0.86328929  0.33095888  0.60167462    -0.10500
H1899       H  0.82361932  0.28492216  0.67575344     0.09200
H1900       H  0.85531129  0.25787944  0.57780462     0.06700
H1901       H  0.87469430  0.35584931  0.59289896     0.06600
Zn1902     Zn  0.58997632  0.38009635  0.73798685     1.49700
Zn1903     Zn  0.54711222  0.38270923  0.68015106     1.49400
Zn1904     Zn  0.61089424  0.45364190  0.71642730     1.49100
Zn1905     Zn  0.62130183  0.41350439  0.65807926     1.49500
O1906       O  0.59265240  0.40854431  0.69836869    -1.83600
O1907       O  0.54331710  0.34846038  0.75922439    -0.74300
O1908       O  0.53363218  0.41449915  0.67848225    -0.74100
O1909       O  0.62914905  0.45813463  0.77038231    -0.73600
O1910       O  0.51230737  0.34601921  0.71310374    -0.74300
O1911       O  0.61734202  0.40708581  0.78046308    -0.73900
O1912       O  0.57003675  0.45651303  0.71381593    -0.74500
O1913       O  0.65299675  0.46104562  0.63941349    -0.73800
O1914       O  0.54190342  0.36411730  0.62962083    -0.74600
O1915       O  0.64739453  0.49065158  0.68244081    -0.74000
O1916       O  0.59427223  0.38754224  0.61513638    -0.74500
O1917       O  0.64450436  0.39071370  0.67436632    -0.74400
O1918       O  0.61109300  0.35643531  0.71789362    -0.74200
C1919       C  0.51493930  0.33701602  0.74511820     0.77600
C1920       C  0.54263949  0.44035998  0.69692864     0.78100
C1921       C  0.63043605  0.43680824  0.79085898     0.77100
C1922       C  0.66064177  0.48907208  0.65248836     0.77500
C1923       C  0.56418528  0.36901389  0.60705972     0.78600
C1924       C  0.63474271  0.36596571  0.69537441     0.77600
C1925       C  0.68223416  0.02042221  0.62899527     0.03600
C1926       C  0.67512338  0.02563346  0.59278752    -0.12500
C1927       C  0.69656526  0.05479205  0.57364995     0.01100
C1928       C  0.72643542  0.07810628  0.59046974    -0.11000
C1929       C  0.73437721  0.07409204  0.62628455     0.03600
C1930       C  0.71166230  0.04507534  0.64551169    -0.10500
H1931       H  0.65606961  0.50644718  0.58197059     0.09200
H1932       H  0.74322291  0.10047423  0.57616630     0.06700
H1933       H  0.71687554  0.04148913  0.67344323     0.06600
C1934       C  0.98503717  0.31957047  0.76396095     0.03600
C1935       C  0.98062664  0.33108973  0.79807460    -0.12500
C1936       C  0.95077116  0.31391462  0.81714821     0.01100
C1937       C  0.92526408  0.28441188  0.80239880    -0.11000
C1938       C  0.92885059  0.27148560  0.76931503     0.03600
C1939       C  0.95885283  0.28955167  0.74986938    -0.10500
H1940       H  0.00032612  0.35344173  0.80977854     0.09200
H1941       H  0.90254960  0.27083451  0.81746835     0.06700
H1942       H  0.96163846  0.28055106  0.72364611     0.06600
Zn1943     Zn  0.79484761  0.12706845  0.71989544     1.49700
Zn1944     Zn  0.83080322  0.20603185  0.72130513     1.49400
Zn1945     Zn  0.87334777  0.17112996  0.72093405     1.49100
Zn1946     Zn  0.83315375  0.16874723  0.64611007     1.49500
O1947       O  0.83303697  0.16821080  0.70093538    -1.83600
O1948       O  0.76348421  0.13734819  0.74895232    -0.74300
O1949       O  0.87261814  0.23806581  0.75068909    -0.74100
O1950       O  0.86248425  0.12828429  0.74801309    -0.73600
O1951       O  0.78614266  0.19151110  0.74469612    -0.74300
O1952       O  0.80858894  0.09567512  0.74254299    -0.73900
O1953       O  0.90413455  0.21621728  0.74568790    -0.74500
O1954       O  0.87632454  0.16806295  0.62885074    -0.73800
O1955       O  0.83226082  0.23547875  0.68196860    -0.74600
O1956       O  0.90178426  0.17137415  0.68112316    -0.74000
O1957       O  0.83606956  0.21389693  0.62951634    -0.74500
O1958       O  0.78797700  0.12585091  0.62765730    -0.74400
O1959       O  0.76563211  0.09960850  0.67958919    -0.74200
C1960       C  0.76200387  0.16342219  0.75317243     0.77600
C1961       C  0.90038698  0.24016972  0.75464221     0.78100
C1962       C  0.83655513  0.09998552  0.75121508     0.77100
C1963       C  0.90072107  0.16967631  0.64648081     0.77500
C1964       C  0.83514808  0.23695210  0.64744428     0.78600
C1965       C  0.76456547  0.10127947  0.64503487     0.77600
Zn1966     Zn  0.79721729  0.36131580  0.70486179     1.49700
Zn1967     Zn  0.85660704  0.42276330  0.66609492     1.49400
Zn1968     Zn  0.79626838  0.43220853  0.68703869     1.49100
Zn1969     Zn  0.82629816  0.42012954  0.74754931     1.49500
O1970       O  0.81854007  0.40861881  0.69710428    -1.83600
O1971       O  0.81294408  0.33742907  0.67119621    -0.74300
O1972       O  0.84663673  0.44276343  0.61803719    -0.74100
O1973       O  0.75049676  0.39674126  0.69336393    -0.73600
O1974       O  0.85949563  0.37960610  0.65066385    -0.74300
O1975       O  0.75047800  0.34912486  0.69779154    -0.73900
O1976       O  0.80197272  0.44382438  0.63444670    -0.74500
O1977       O  0.83366487  0.46555481  0.76216455    -0.73800
O1978       O  0.89158639  0.45724892  0.70412719    -0.74600
O1979       O  0.80943896  0.47548617  0.71707126    -0.74000
O1980       O  0.86746300  0.42178199  0.74816365    -0.74500
O1981       O  0.79604806  0.38500389  0.78290166    -0.74400
O1982       O  0.80344870  0.34768461  0.75696226    -0.74200
C1983       C  0.83965498  0.34820281  0.65356086     0.77600
C1984       C  0.82285799  0.44752382  0.61038484     0.78100
C1985       C  0.73588323  0.36549611  0.69533980     0.77100
C1986       C  0.82538893  0.48452583  0.74718319     0.77500
C1987       C  0.88828013  0.45047926  0.73862731     0.78600
C1988       C  0.79806918  0.35941908  0.78556828     0.77600
C1989       C  0.83528601  0.01776714  0.76365427     0.03600
C1990       C  0.85145372  0.02485907  0.79794616    -0.12500
C1991       C  0.86142304  0.05452043  0.81605703     0.01100
C1992       C  0.85567855  0.07789689  0.80025474    -0.11000
C1993       C  0.83954365  0.07227529  0.76669119     0.03600
C1994       C  0.82901957  0.04180046  0.74827391    -0.10500
H1995       H  0.85620971  0.00723387  0.81096832     0.09200
H1996       H  0.86381757  0.10088820  0.81450896     0.06700
H1997       H  0.81706436  0.03733301  0.72188360     0.06600
C1998       C  0.68352306  0.16759995  0.76737354     0.03600
C1999       C  0.67446653  0.15295555  0.80268071    -0.12500
C2000       C  0.69312731  0.14151342  0.82060326     0.01100
C2001       C  0.72159174  0.14591545  0.80334782    -0.11000
C2002       C  0.73181501  0.16085691  0.76929924     0.03600
C2003       C  0.71251705  0.17151327  0.75106159    -0.10500
H2004       H  0.65223309  0.14916942  0.81536811     0.09200
H2005       H  0.73657085  0.13776112  0.81661036     0.06700
H2006       H  0.71969867  0.18225319  0.72403686     0.06600
Zn2007     Zn  0.61278204  0.15721471  0.68557109     1.49700
Zn2008     Zn  0.54419347  0.15473450  0.72075355     1.49400
Zn2009     Zn  0.61694631  0.20461071  0.74015219     1.49100
Zn2010     Zn  0.58394494  0.20241078  0.66092463     1.49500
O2011       O  0.58819686  0.17883568  0.70036580    -1.83600
O2012       O  0.58601835  0.11350086  0.70928819    -0.74300
O2013       O  0.53944326  0.17680873  0.76681374    -0.74100
O2014       O  0.64534938  0.18713242  0.76336207    -0.73600
O2015       O  0.54920659  0.11859073  0.74277261    -0.74300
O2016       O  0.65622302  0.16987061  0.71244257    -0.73900
O2017       O  0.59168063  0.20948177  0.78077853    -0.74500
O2018       O  0.60765534  0.24840294  0.67825424    -0.73800
O2019       O  0.50599381  0.14917963  0.68478509    -0.74600
O2020       O  0.64319357  0.24911630  0.71943429    -0.74000
O2021       O  0.53642985  0.18840031  0.64516404    -0.74500
O2022       O  0.60935293  0.19973452  0.61824988    -0.74400
O2023       O  0.62412393  0.16305467  0.62960247    -0.74200
C2024       C  0.56981316  0.10895682  0.73889775     0.77600
C2025       C  0.56159056  0.19747078  0.78824509     0.78100
C2026       C  0.66105280  0.17581410  0.74666716     0.77100
C2027       C  0.63293583  0.26345835  0.69850990     0.77500
C2028       C  0.50815739  0.16695938  0.65707417     0.78600
C2029       C  0.62368996  0.18438286  0.60841941     0.77600
C2030       C  0.98130245  0.16947197  0.63008244     0.03600
C2031       C  0.95570963  0.17149231  0.64770835    -0.12500
C2032       C  0.92865011  0.16905255  0.62755041     0.01100
C2033       C  0.92762253  0.16410738  0.58958766    -0.11000
C2034       C  0.95200163  0.16097322  0.57179876     0.03600
C2035       C  0.97883959  0.16413361  0.59189820    -0.10500
H2036       H  0.95701718  0.17513067  0.67709693     0.09200
H2037       H  0.90663543  0.16051202  0.57401600     0.06700
H2038       H  0.49456670  0.15755322  0.58436007     0.06600
C2039       C  0.94374879  0.99956034  0.57459556     0.80700
N2040       N  0.49062695  0.02585508  0.56813521    -0.77600
C2041       C  0.51437697  0.02014492  0.55901015     0.83200
N2042       N  0.47175095  0.46468583  0.57485202    -0.77500
C2043       C  0.93405460  0.43825791  0.57554930     0.83300
N2044       N  0.91436096  0.45109901  0.57276121    -0.79200
Zn2045     Zn  0.66066769  0.04265877  0.96623099     1.49700
Zn2046     Zn  0.65310183  0.10600589  0.93254721     1.49400
Zn2047     Zn  0.70578647  0.12063265  0.48648287     1.49100
Zn2048     Zn  0.70434608  0.08515830  0.90641929     1.49500
O2049       O  0.68077175  0.08780007  0.94781585    -1.83600
O2050       O  0.60727665  0.04917105  0.46415616    -0.74300
O2051       O  0.65777080  0.14436826  0.96574405    -0.74100
O2052       O  0.70594128  0.09285370  0.52674943    -0.73600
O2053       O  0.60763829  0.06940203  0.94516610    -0.74300
O2054       O  0.66346398  0.04283820  0.51802383    -0.73900
O2055       O  0.69102187  0.15059719  0.51080599    -0.74500
O2056       O  0.75120611  0.10813557  0.92076072    -0.73800
O2057       O  0.66217466  0.12273950  0.87794837    -0.74600
O2058       O  0.75347547  0.14254639  0.96446952    -0.74000
O2059       O  0.70083618  0.11108606  0.86632688    -0.74500
O2060       O  0.68942801  0.03914467  0.88521876    -0.74400
O2061       O  0.65991928  0.00754164  0.93101523    -0.74200
C2062       C  0.59868109  0.04518946  0.96702075     0.77600
C2063       C  0.67648052  0.16422118  0.49659557     0.78100
C2064       C  0.68796598  0.06343814  0.53743112     0.77100
C2065       C  0.76708469  0.13297168  0.94153467     0.77500
C2066       C  0.68437864  0.12416894  0.85681885     0.78600
C2067       C  0.67223983  0.01066704  0.89912202     0.77600
C2068       C  0.66901669  0.18625643  0.51922334     0.03600
C2069       C  0.65302875  0.17569344  0.55374790    -0.12500
C2070       C  0.64159985  0.19413983  0.57246975     0.01100
C2071       C  0.64776739  0.22395469  0.55694676    -0.11000
C2072       C  0.66465205  0.23572115  0.52402919     0.03600
C2073       C  0.67479113  0.21652127  0.50487655    -0.10500
H2074       H  0.64810047  0.15250274  0.56500606     0.09200
H2075       H  0.63956724  0.23871175  0.57072678     0.06700
H2076       H  0.68374643  0.21793906  0.97499763     0.06600
C2077       C  0.51989113  0.18914265  0.88024340     0.03600
C2078       C  0.52468458  0.18372782  0.84325233    -0.12500
C2079       C  0.55326475  0.20615243  0.82411277     0.01100
C2080       C  0.57713640  0.23476727  0.84187109    -0.11000
C2081       C  0.57398720  0.24066347  0.87870042     0.03600
C2082       C  0.54482048  0.21792820  0.89764245    -0.10500
H2083       H  0.00543883  0.17197864  0.82043984     0.09200
H2084       H  0.59950038  0.25152656  0.82756889     0.06700
H2085       H  0.54212474  0.22187735  0.92634228     0.06600
Zn2086     Zn  0.86904410  0.07214765  0.93348107     1.49700
Zn2087     Zn  0.93904262  0.10149425  0.89574540     1.49400
Zn2088     Zn  0.93724751  0.14522622  0.95394552     1.49100
Zn2089     Zn  0.92265910  0.08701683  0.49012008     1.49500
O2090       O  0.91585839  0.09849351  0.94174506    -1.83600
O2091       O  0.85996300  0.05966058  0.88006818    -0.74300
O2092       O  0.96745661  0.14680508  0.87376888    -0.74100
O2093       O  0.90141999  0.15355381  0.94153616    -0.73600
O2094       O  0.90808839  0.07459340  0.85445790    -0.74300
O2095       O  0.85463064  0.10436023  0.94004515    -0.73900
O2096       O  0.98105263  0.17572148  0.92462855    -0.74500
O2097       O  0.93234705  0.11548836  0.53312625    -0.73800
O2098       O  0.97526450  0.09431757  0.90920257    -0.74600
O2099       O  0.94962374  0.16318270  0.50600832    -0.74000
O2100       O  0.96597635  0.10235191  0.46771109    -0.74500
O2101       O  0.88320433  0.03951180  0.50562633    -0.74400
O2102       O  0.84330659  0.02971510  0.96596088    -0.74200
C2103       C  0.87720942  0.06207473  0.85227488     0.77600
C2104       C  0.98748045  0.17253725  0.89132245     0.78100
C2105       C  0.87026884  0.13566036  0.93939823     0.77100
C2106       C  0.94480181  0.14618686  0.53492014     0.77500
C2107       C  0.98556598  0.09524033  0.94165030     0.78600
C2108       C  0.85298556  0.02254461  0.49576596     0.77600
C2109       C  0.51822397  0.32516944  0.51917156     0.03600
C2110       C  0.52477136  0.33918575  0.55484300    -0.12500
C2111       C  0.55583798  0.35246738  0.57103830     0.01100
C2112       C  0.58035327  0.35068518  0.55249949    -0.11000
C2113       C  0.57500148  0.33615846  0.51833274     0.03600
C2114       C  0.54377476  0.32318009  0.50119118    -0.10500
H2115       H  0.00917397  0.34831302  0.56582302     0.09200
H2116       H  0.60419593  0.36033998  0.56512909     0.06700
H2117       H  0.54304802  0.31046380  0.97701582     0.06600
Zn2118     Zn  0.67055454  0.33460585  0.89999061     1.49700
Zn2119     Zn  0.63263380  0.29403408  0.97200329     1.49400
Zn2120     Zn  0.71034102  0.33232136  0.97514813     1.49100
Zn2121     Zn  0.67477068  0.37415519  0.97385147     1.49500
O2122       O  0.67239447  0.33399565  0.95432494    -1.83600
O2123       O  0.62674487  0.29214584  0.88135807    -0.74300
O2124       O  0.64178941  0.26681449  0.50192468    -0.69900
O2125       O  0.73678598  0.33073474  0.93437986    -0.73600
O2126       O  0.60288447  0.26654717  0.93283260    -0.74300
O2127       O  0.71278518  0.33342489  0.88304036    -0.73900
O2128       O  0.69599619  0.29074618  0.50069218    -0.74500
O2129       O  0.71996629  0.40881788  0.49853954    -0.73800
O2130       O  0.60058504  0.30862153  0.49374765    -0.74600
O2131       O  0.74298930  0.37824064  0.50193401    -0.74000
O2132       O  0.63099785  0.36288580  0.49971614    -0.74500
O2133       O  0.67128250  0.40193503  0.93493786    -0.74400
O2134       O  0.66896733  0.37725595  0.88250850    -0.74200
C2135       C  0.60264891  0.26820163  0.89834343     0.77600
C2136       C  0.66784568  0.26617376  0.50818818     0.78100
C2137       C  0.73571003  0.33141626  0.89972665     0.77100
C2138       C  0.74451832  0.40579296  0.50659843     0.77500
C2139       C  0.60345577  0.33590122  0.50223211     0.78600
C2140       C  0.66877613  0.40070465  0.90030617     0.77600
Zn2141     Zn  0.86530277  0.29660530  0.95768706     1.49700
Zn2142     Zn  0.91575337  0.35168979  0.90657478     1.49400
Zn2143     Zn  0.93914536  0.33826430  0.49354119     1.49100
Zn2144     Zn  0.93629880  0.29762078  0.93416898     1.49500
O2145       O  0.91246109  0.32018299  0.94665907    -1.83600
O2146       O  0.83522817  0.30880613  0.92558558    -0.74300
O2147       O  0.93217734  0.39517855  0.93647125    -0.74100
O2148       O  0.90876557  0.33270198  0.53694912    -0.73600
O2149       O  0.87077344  0.34267348  0.88494430    -0.74300
O2150       O  0.85907227  0.29925331  0.51469413    -0.73900
O2151       O  0.96951900  0.37713578  0.46421185    -0.74500
O2152       O  0.98065009  0.30820755  0.96315205    -0.73800
O2153       O  0.94012952  0.34562017  0.86137775    -0.74600
O2154       O  0.96944610  0.32565356  0.51582322    -0.74000
O2155       O  0.94538736  0.30366857  0.88031010    -0.74500
O2156       O  0.90072031  0.25120114  0.93956858    -0.74400
O2157       O  0.85346253  0.25088455  0.94693990    -0.74200
C2158       C  0.84135713  0.32659676  0.89678759     0.77600
C2159       C  0.94480557  0.39404660  0.96682654     0.78100
C2160       C  0.87804977  0.31417282  0.54165578     0.77100
C2161       C  0.98941560  0.32063275  0.49842176     0.77500
C2162       C  0.94639902  0.32265848  0.85505169     0.78600
C2163       C  0.86957558  0.23640411  0.94221386     0.77600
C2164       C  0.81441048  0.32959724  0.87717004     0.03600
C2165       C  0.81739427  0.33901694  0.83959061    -0.12500
C2166       C  0.79343706  0.34393116  0.82219183     0.01100
C2167       C  0.76646548  0.33940196  0.84209663    -0.11000
C2168       C  0.76277815  0.33110987  0.87905282     0.03600
C2169       C  0.78656866  0.32565157  0.89640562    -0.10500
H2170       H  0.83887388  0.34378199  0.82430110     0.09200
H2171       H  0.74896437  0.34426493  0.82887898     0.06700
H2172       H  0.78412669  0.31962391  0.92527784     0.06600
C2173       C  0.82530641  0.49018839  0.51931291     0.03600
C2174       C  0.83421840  0.48448142  0.55459280    -0.12500
C2175       C  0.81580224  0.45391121  0.57238645     0.01100
C2176       C  0.78677615  0.42939094  0.55596313    -0.11000
C2177       C  0.77547097  0.43427161  0.52245626     0.03600
C2178       C  0.79503844  0.46489091  0.50402363    -0.10500
H2179       H  0.85881536  0.00265887  0.56506485     0.09200
H2180       H  0.77230137  0.40618226  0.57000234     0.06700
H2181       H  0.78625785  0.46643297  0.97596916     0.06600
C2182       C  0.66395351  0.47894223  0.88418021     0.03600
C2183       C  0.65303815  0.47384706  0.84732575    -0.12500
C2184       C  0.64657348  0.44528107  0.82794977     0.01100
C2185       C  0.65328437  0.42261127  0.84525723    -0.11000
C2186       C  0.66447636  0.42682064  0.88162739     0.03600
C2187       C  0.66909037  0.45499102  0.90107922    -0.10500
H2188       H  0.64838607  0.99355149  0.82954812     0.09200
H2189       H  0.64870298  0.40077313  0.83066294     0.06700
H2190       H  0.67710854  0.45859559  0.92936605     0.06600
C2191       C  0.85189176  0.15212491  0.93727247     0.80700
N2192       N  0.86818314  0.18514231  0.93829191    -0.77600
C2193       C  0.85163695  0.20115387  0.93998407     0.83200
N2194       N  0.81861560  0.18417910  0.94101474    -0.77500
C2195       C  0.80225112  0.15108200  0.93922986     0.83300
N2196       N  0.81880721  0.13491574  0.93733844    -0.79200
C2197       C  0.96101707  0.39961105  0.53053471    -0.01300
C2198       C  0.94477441  0.39960981  0.49759056     0.08300
C2199       C  0.91312161  0.39540887  0.50015613    -0.01500
C2200       C  0.90001410  0.39402401  0.53490058    -0.01500
C2201       C  0.92092377  0.40373880  0.56548629     0.08500
C2202       C  0.94542414  0.39583659  0.56432334    -0.01700
Br2203     Br  0.46267928  0.40025229  0.62501600    -0.00200
Br2204     Br  0.00517724  0.40772661  0.53076842    -0.00300
Br2205     Br  0.85385891  0.37729592  0.54103775    -0.00200
Br2206     Br  0.87122805  0.38377794  0.96981371    -0.00200
C2207       C  0.97468578  0.06907502  0.52173662    -0.01300
C2208       C  0.96070936  0.05479962  0.48747052     0.08300
C2209       C  0.02349192  0.07635637  0.94179075    -0.01500
C2210       C  0.91965094  0.00641443  0.51884913    -0.01500
C2211       C  0.93486891  0.01990365  0.55293808     0.08500
C2212       C  0.95861458  0.05352461  0.55416390    -0.01700
Br2213     Br  0.97568381  0.07447780  0.60087638    -0.00200
Br2214     Br  0.01570997  0.11033472  0.52400102    -0.00300
Br2215     Br  0.87267182  0.45666936  0.01131363    -0.00200
Br2216     Br  0.00708692  0.05160939  0.89717692    -0.00200
C2217       C  0.53862886  0.01224836  0.97594682    -0.01300
C2218       C  0.56564453  0.06129926  0.46162091     0.08300
C2219       C  0.56819645  0.08250468  0.49001934    -0.01500
C2220       C  0.55360661  0.06904049  0.52365114    -0.01500
C2221       C  0.53103450  0.03538608  0.52516633     0.08500
C2222       C  0.52003801  0.01720133  0.49211983    -0.01700
Br2223     Br  0.46773017  0.47060013  0.48693426    -0.00200
Br2224     Br  0.53293031  0.99747056  0.92576412    -0.00300
Br2225     Br  0.56552146  0.09583216  0.56707788    -0.00200
Br2226     Br  0.59255487  0.12902975  0.48303785    -0.00200
C2227       C  0.95399997  0.52371052  0.79241611    -0.01300
C2228       C  0.95038485  0.50767184  0.82589177     0.08300
C2229       C  0.91945326  0.48191690  0.83482081    -0.01500
C2230       C  0.89710411  0.46522400  0.80659389    -0.01500
C2231       C  0.90618074  0.47460243  0.76903010     0.08500
C2232       C  0.93321004  0.50636909  0.76275327    -0.01700
Br2233     Br  0.94241137  0.52644783  0.71506396    -0.00200
Br2234     Br  0.98697079  0.56889796  0.78860861    -0.00300
Br2235     Br  0.85589085  0.42935952  0.82250609    -0.00200
Br2236     Br  0.92092868  0.01547214  0.86245570    -0.00200
C2237       C  0.55662915  0.07429574  0.83295494    -0.01300
C2238       C  0.54642519  0.04326281  0.81854452     0.08300
C2239       C  0.57070513  0.04384444  0.79579537    -0.01500
C2240       C  0.58256829  0.06775128  0.76768280    -0.01500
C2241       C  0.57541636  0.09322780  0.77097842     0.08500
C2242       C  0.56863397  0.09983551  0.80704031    -0.01700
Br2243     Br  0.57471651  0.14146365  0.82074227    -0.00200
Br2244     Br  0.08455641  0.10401204  0.86936443    -0.00300
Br2245     Br  0.60558989  0.06427187  0.72641851    -0.00200
Br2246     Br  0.57535062  0.00607833  0.79359407    -0.00200
C2247       C  0.49537698  0.48294942  0.69209771    -0.01300
C2248       C  0.47921242  0.47206600  0.72575964     0.08300
C2249       C  0.47365717  0.44257065  0.74050421    -0.01500
C2250       C  0.49509279  0.43206343  0.73101265    -0.01500
C2251       C  0.51796139  0.44861287  0.70295372     0.08500
C2252       C  0.51589493  0.47156336  0.68079553    -0.01700
Br2253     Br  0.54222292  0.48810858  0.63731451    -0.00200
Br2254     Br  0.49390884  0.51745896  0.66654287    -0.00300
Br2255     Br  0.49601051  0.39848917  0.75961801    -0.00200
Br2256     Br  0.02386757  0.42172058  0.86855179    -0.00200
C2257       C  0.49513562  0.01076178  0.25250882     0.80700
N2258       N  0.52718445  0.50741335  0.29142158    -0.77600
C2259       C  0.53603985  0.53383137  0.31323635     0.83200
N2260       N  0.00576084  0.54785324  0.30583745    -0.77500
C2261       C  0.96919316  0.00197470  0.33064865     0.83300
N2262       N  0.96718686  0.97359844  0.31986218    -0.79200
C2263       C  0.65380576  0.85334191  0.19249221     0.80700
N2264       N  0.68688742  0.87025089  0.19101061    -0.77600
C2265       C  0.70327721  0.85384755  0.19061118     0.83200
N2266       N  0.68664171  0.82074818  0.19128600    -0.77500
C2267       C  0.65368036  0.80400086  0.19169566     0.83300
N2268       N  0.63714809  0.82019181  0.19259609    -0.79200
C2269       C  0.84760475  0.82555016  0.13253395     0.03600
C2270       C  0.83820057  0.79473102  0.14910594    -0.12500
C2271       C  0.84282339  0.77056224  0.13089426     0.01100
C2272       C  0.85500709  0.77702273  0.09508025    -0.11000
C2273       C  0.86450587  0.80713970  0.07840390     0.03600
C2274       C  0.86196397  0.83155414  0.09762898    -0.10500
H2275       H  0.82800873  0.78990990  0.17646639     0.09200
H2276       H  0.85834934  0.75905918  0.08044974     0.06700
H2277       H  0.87035902  0.85507105  0.08512794     0.06600
Zn2278     Zn  0.58964609  0.88420238  0.23483553     1.49700
Zn2279     Zn  0.54738158  0.88873328  0.17607294     1.49400
Zn2280     Zn  0.61133060  0.95834573  0.21305171     1.49100
Zn2281     Zn  0.62176959  0.91723279  0.15559375     1.49500
O2282       O  0.59262613  0.91292612  0.19523545    -1.83600
O2283       O  0.54257158  0.85299571  0.25569514    -0.74300
O2284       O  0.53623472  0.92269889  0.17102557    -0.74100
O2285       O  0.62627501  0.96227262  0.26807261    -0.73600
O2286       O  0.51182515  0.85374645  0.21091203    -0.74300
O2287       O  0.61558910  0.91150747  0.27769368    -0.73900
O2288       O  0.57287154  0.96472660  0.20589673    -0.74500
O2289       O  0.65421790  0.96432091  0.13773992    -0.73800
O2290       O  0.54308024  0.86872490  0.12563323    -0.74600
O2291       O  0.65052908  0.99449632  0.18153839    -0.74000
O2292       O  0.59559474  0.89135351  0.11194941    -0.74500
O2293       O  0.64539164  0.89513605  0.17259301    -0.74400
O2294       O  0.61228381  0.86092132  0.21620128    -0.74200
C2295       C  0.51423010  0.84358263  0.24247353     0.77600
C2296       C  0.54617978  0.94974845  0.18749596     0.78100
C2297       C  0.62746103  0.94095062  0.28859572     0.77100
C2298       C  0.66342351  0.99242925  0.15159883     0.77500
C2299       C  0.56556524  0.87307782  0.10344916     0.78600
C2300       C  0.63620809  0.87073582  0.19392070     0.77600
C2301       C  0.68362098  0.52185395  0.13668956     0.03600
C2302       C  0.67806480  0.52648412  0.09958393    -0.12500
C2303       C  0.69962584  0.55583104  0.08059443     0.01100
C2304       C  0.72808598  0.58007860  0.09836996    -0.11000
C2305       C  0.73507447  0.57656126  0.13474363     0.03600
C2306       C  0.71215412  0.54744812  0.15404277    -0.10500
H2307       H  0.66158389  0.00853048  0.08056363     0.09200
H2308       H  0.74476938  0.60238556  0.08387354     0.06700
H2309       H  0.71676033  0.54437781  0.18239193     0.06600
C2310       C  0.98785425  0.82692733  0.26311685     0.03600
C2311       C  0.98292050  0.83805148  0.29741855    -0.12500
C2312       C  0.95313485  0.81982507  0.31675792     0.01100
C2313       C  0.92836053  0.79009398  0.30199404    -0.11000
C2314       C  0.93233106  0.77753095  0.26902803     0.03600
C2315       C  0.96218622  0.79628855  0.24933803    -0.10500
H2316       H  0.00222995  0.86058045  0.30920043     0.09200
H2317       H  0.90574425  0.77590339  0.31711643     0.06700
H2318       H  0.96526776  0.78731104  0.22325016     0.06600
Zn2319     Zn  0.79762075  0.63154589  0.22607154     1.49700
Zn2320     Zn  0.83343925  0.71052631  0.22459731     1.49400
Zn2321     Zn  0.87591238  0.67532334  0.22523108     1.49100
Zn2322     Zn  0.83421862  0.67117300  0.15124026     1.49500
O2323       O  0.83535550  0.67215277  0.20571187    -1.83600
O2324       O  0.76689077  0.64250218  0.25452333    -0.74300
O2325       O  0.87580280  0.74303912  0.25256745    -0.74100
O2326       O  0.86546224  0.63317091  0.25403186    -0.73600
O2327       O  0.78852442  0.69632968  0.24737395    -0.74300
O2328       O  0.81156563  0.60053347  0.24876827    -0.73900
O2329       O  0.90777118  0.72170982  0.24687262    -0.74500
O2330       O  0.87590789  0.66822408  0.13362786    -0.73800
O2331       O  0.83519358  0.73966267  0.18472530    -0.74600
O2332       O  0.90271715  0.67294919  0.18526171    -0.74000
O2333       O  0.83816730  0.71643962  0.13319856    -0.74500
O2334       O  0.78833257  0.62838854  0.13499633    -0.74400
O2335       O  0.76707615  0.60276102  0.18749152    -0.74200
C2336       C  0.76475653  0.66831647  0.25683844     0.77600
C2337       C  0.90393879  0.74572507  0.25529292     0.78100
C2338       C  0.83953501  0.60483051  0.25726718     0.77100
C2339       C  0.90041365  0.66966029  0.15078226     0.77500
C2340       C  0.83792914  0.74024998  0.15022199     0.78600
C2341       C  0.76529145  0.60403814  0.15301321     0.77600
Zn2342     Zn  0.79860076  0.86549742  0.20084355     1.49700
Zn2343     Zn  0.85949482  0.92519291  0.15867654     1.49400
Zn2344     Zn  0.80080378  0.93679295  0.18265831     1.49100
Zn2345     Zn  0.83905842  0.92701346  0.24098376     1.49500
O2346       O  0.82244125  0.91284702  0.19334311    -1.83600
O2347       O  0.81527252  0.84098275  0.16905934    -0.74300
O2348       O  0.84777818  0.94159498  0.11079799    -0.74100
O2349       O  0.75397645  0.90279323  0.19031347    -0.73600
O2350       O  0.86112678  0.88190523  0.14530799    -0.74300
O2351       O  0.75278880  0.85461166  0.19104341    -0.73900
O2352       O  0.80551525  0.94649671  0.12817482    -0.74500
O2353       O  0.84758549  0.97297397  0.25433582    -0.73800
O2354       O  0.89998901  0.96237903  0.18893265    -0.74600
O2355       O  0.81621295  0.97955367  0.21475950    -0.74000
O2356       O  0.87577987  0.92297907  0.22711146    -0.74500
O2357       O  0.81734326  0.89734477  0.28297934    -0.74400
O2358       O  0.79885279  0.85035987  0.25385590    -0.74200
C2359       C  0.84129073  0.85088838  0.15020110     0.77600
C2360       C  0.82464537  0.94707029  0.10330415     0.78100
C2361       C  0.73866201  0.87145578  0.19050557     0.77100
C2362       C  0.83548179  0.98987034  0.24252572     0.77500
C2363       C  0.89657893  0.95235103  0.22196797     0.78600
C2364       C  0.80529147  0.86662763  0.28354098     0.77600
C2365       C  0.83810872  0.52226513  0.26792598     0.03600
C2366       C  0.85400186  0.52889448  0.30239021    -0.12500
C2367       C  0.86339290  0.55804844  0.32143556     0.01100
C2368       C  0.85787579  0.58175492  0.30613211    -0.11000
C2369       C  0.84240500  0.57685973  0.27222684     0.03600
C2370       C  0.83201658  0.54663268  0.25310152    -0.10500
H2371       H  0.85873939  0.51109294  0.31503887     0.09200
H2372       H  0.86557782  0.60434602  0.32105975     0.06700
H2373       H  0.82033948  0.54264410  0.22659752     0.06600
C2374       C  0.68508738  0.67083029  0.26656751     0.03600
C2375       C  0.67436384  0.65475239  0.30109697    -0.12500
C2376       C  0.69240716  0.64291665  0.31987915     0.01100
C2377       C  0.72185552  0.64847232  0.30427489    -0.11000
C2378       C  0.73388200  0.66518680  0.27140502     0.03600
C2379       C  0.71519799  0.67604812  0.25220665    -0.10500
H2380       H  0.65153900  0.65040102  0.31256879     0.09200
H2381       H  0.73636410  0.64004854  0.31812061     0.06700
H2382       H  0.72367658  0.68785417  0.22584509     0.06600
Zn2383     Zn  0.61606133  0.66099082  0.18112830     1.49700
Zn2384     Zn  0.54761129  0.65780107  0.21647697     1.49400
Zn2385     Zn  0.62067786  0.71015454  0.23519174     1.49100
Zn2386     Zn  0.58674082  0.70627758  0.15622386     1.49500
O2387       O  0.59183443  0.68313674  0.19603501    -1.83600
O2388       O  0.58628078  0.61591253  0.19933859    -0.74300
O2389       O  0.54275056  0.67961860  0.26274654    -0.74100
O2390       O  0.64941125  0.69320893  0.25934821    -0.73600
O2391       O  0.55244932  0.62111544  0.23732066    -0.74300
O2392       O  0.65762034  0.67086114  0.21072649    -0.73900
O2393       O  0.59476344  0.71503397  0.27534391    -0.74500
O2394       O  0.61108991  0.75319698  0.17189067    -0.73800
O2395       O  0.50893955  0.65139469  0.18106985    -0.74600
O2396       O  0.64649726  0.75470804  0.21376531    -0.74000
O2397       O  0.53863143  0.69132470  0.14175579    -0.74500
O2398       O  0.61042253  0.70203385  0.11272147    -0.74400
O2399       O  0.62750425  0.66735877  0.12555188    -0.74200
C2400       C  0.57321266  0.61216407  0.23090470     0.77600
C2401       C  0.56458873  0.70162602  0.28339132     0.78100
C2402       C  0.66340831  0.67924472  0.24438143     0.77100
C2403       C  0.63619097  0.76873217  0.19238063     0.77500
C2404       C  0.51060239  0.66924380  0.15366240     0.78600
C2405       C  0.62510175  0.68691076  0.10334063     0.77600
C2406       C  0.97910648  0.66625357  0.13249945     0.03600
C2407       C  0.95401279  0.66863924  0.15087422    -0.12500
C2408       C  0.92715343  0.66730177  0.13135356     0.01100
C2409       C  0.92542778  0.66255216  0.09333856    -0.11000
C2410       C  0.94935294  0.65942330  0.07452729     0.03600
C2411       C  0.97628142  0.66189093  0.09401868    -0.10500
H2412       H  0.95571975  0.67203409  0.18030684     0.09200
H2413       H  0.90442061  0.65960905  0.07834915     0.06700
H2414       H  0.49490370  0.65612711  0.08155553     0.06600
C2415       C  0.93513603  0.49814468  0.07132253     0.80700
N2416       N  0.46276032  0.50424048  0.06228822    -0.77600
C2417       C  0.48178472  0.49118305  0.06122205     0.83200
N2418       N  0.47483909  0.96331451  0.06938794    -0.77500
C2419       C  0.96585781  0.00110850  0.04040993     0.83300
N2420       N  0.98202216  0.03288779  0.02995523    -0.79200
Zn2421     Zn  0.65619720  0.54428351  0.46688256     1.49700
Zn2422     Zn  0.65202692  0.60966924  0.43209084     1.49400
Zn2423     Zn  0.70409913  0.61775017  0.98858332     1.49100
Zn2424     Zn  0.70325703  0.58716529  0.40828474     1.49500
O2425       O  0.67830243  0.58985995  0.44845911    -1.83600
O2426       O  0.61201263  0.53424645  0.97911860    -0.74300
O2427       O  0.65991383  0.65113929  0.46187669    -0.74100
O2428       O  0.70515758  0.59303003  0.03342717    -0.73600
O2429       O  0.60622701  0.57549846  0.44853490    -0.74300
O2430       O  0.67324286  0.54007571  0.02128137    -0.73900
O2431       O  0.68893316  0.64925091  0.00676113    -0.74500
O2432       O  0.75006272  0.61153790  0.42457968    -0.73800
O2433       O  0.66033008  0.62383139  0.37651110    -0.74600
O2434       O  0.75061212  0.64317293  0.47063252    -0.74000
O2435       O  0.69934406  0.61224802  0.36646537    -0.74500
O2436       O  0.68995566  0.54030904  0.38959081    -0.74400
O2437       O  0.65563973  0.50877308  0.43259528    -0.74200
C2438       C  0.59590115  0.55010620  0.46891601     0.77600
C2439       C  0.67072371  0.65863919  0.99216707     0.78100
C2440       C  0.69223198  0.56309601  0.04306436     0.77100
C2441       C  0.76514913  0.63490100  0.44747465     0.77500
C2442       C  0.68281628  0.62510735  0.35598556     0.78600
C2443       C  0.67094666  0.51176117  0.40276296     0.77600
C2444       C  0.66412599  0.68243395  0.01235669     0.03600
C2445       C  0.65054066  0.67452458  0.04812309    -0.12500
C2446       C  0.64083595  0.69449006  0.06634976     0.01100
C2447       C  0.64648231  0.72342497  0.04924063    -0.11000
C2448       C  0.66131032  0.73296528  0.01501630     0.03600
C2449       C  0.66959152  0.71204349  0.99606115    -0.10500
H2450       H  0.64640641  0.65225939  0.06114860     0.09200
H2451       H  0.63968333  0.73934999  0.06295029     0.06700
H2452       H  0.68266684  0.72274671  0.46978681     0.06600
C2453       C  0.52161896  0.69378378  0.37470206     0.03600
C2454       C  0.52714489  0.68789383  0.33812245    -0.12500
C2455       C  0.55587907  0.71032071  0.31909117     0.01100
C2456       C  0.57932788  0.73931748  0.33663831    -0.11000
C2457       C  0.57559962  0.74573840  0.37309227     0.03600
C2458       C  0.54620505  0.72302475  0.39185583    -0.10500
H2459       H  0.00902707  0.66195959  0.32666659     0.09200
H2460       H  0.60179175  0.75609003  0.32251499     0.06700
H2461       H  0.54307065  0.72737204  0.42028929     0.06600
Zn2462     Zn  0.86678986  0.57404418  0.43885322     1.49700
Zn2463     Zn  0.93786825  0.59109870  0.40746367     1.49400
Zn2464     Zn  0.93644554  0.64740264  0.45454825     1.49100
Zn2465     Zn  0.91553616  0.58643234  0.99203514     1.49500
O2466       O  0.91354651  0.59979912  0.44735861    -1.83600
O2467       O  0.85960680  0.56284622  0.38513992    -0.74300
O2468       O  0.97989471  0.63372750  0.39057884    -0.74100
O2469       O  0.90008554  0.65581725  0.44436137    -0.73600
O2470       O  0.90755882  0.57286910  0.36282432    -0.74300
O2471       O  0.85319149  0.60672383  0.44613042    -0.73900
O2472       O  0.97789061  0.67344533  0.42064810    -0.74500
O2473       O  0.92465236  0.61412893  0.03537668    -0.73800
O2474       O  0.94757126  0.55696871  0.42990428    -0.74600
O2475       O  0.94891644  0.66224419  0.00817449    -0.74000
O2476       O  0.95871744  0.60091003  0.96933125    -0.74500
O2477       O  0.87623573  0.53983044  0.00770995    -0.74400
O2478       O  0.83916929  0.53158189  0.47126058    -0.74200
C2479       C  0.87749997  0.56401577  0.35852948     0.77600
C2480       C  0.99193157  0.66428177  0.39745192     0.78100
C2481       C  0.86883773  0.63798654  0.44487067     0.77100
C2482       C  0.94110686  0.64495336  0.03730842     0.77500
C2483       C  0.95210479  0.56351542  0.46382951     0.78600
C2484       C  0.84643634  0.52164834  0.99733693     0.77600
C2485       C  0.51988213  0.82845781  0.01539979     0.03600
C2486       C  0.52656813  0.84315020  0.05078801    -0.12500
C2487       C  0.55752362  0.85633056  0.06729873     0.01100
C2488       C  0.58206619  0.85424963  0.04890049    -0.11000
C2489       C  0.57650919  0.83897875  0.01499100     0.03600
C2490       C  0.54523770  0.82586819  0.99791412    -0.10500
H2491       H  0.01519556  0.86359522  0.06037791     0.09200
H2492       H  0.60594036  0.86407968  0.06147338     0.06700
H2493       H  0.54113738  0.81390068  0.47159072     0.06600
Zn2494     Zn  0.67153075  0.84113570  0.39475126     1.49700
Zn2495     Zn  0.63278980  0.80035577  0.46660360     1.49400
Zn2496     Zn  0.71048926  0.83776735  0.46947228     1.49100
Zn2497     Zn  0.67546056  0.88025289  0.47029661     1.49500
O2498       O  0.67287659  0.84023664  0.44924651    -1.83600
O2499       O  0.62806535  0.79789069  0.37577855    -0.74300
O2500       O  0.63933212  0.76485010  0.99270379    -0.69900
O2501       O  0.73720626  0.83674897  0.42893703    -0.73600
O2502       O  0.60380457  0.77252895  0.42720551    -0.74300
O2503       O  0.71488077  0.84122974  0.37722298    -0.73900
O2504       O  0.69347015  0.78841392  0.99318710    -0.74500
O2505       O  0.72137715  0.90839910  0.99096271    -0.73800
O2506       O  0.60072977  0.81016232  0.98998878    -0.74600
O2507       O  0.74225488  0.87599002  0.99563605    -0.74000
O2508       O  0.63224516  0.86447028  0.99497151    -0.74500
O2509       O  0.67173382  0.90818294  0.43172013    -0.74400
O2510       O  0.66815469  0.88327165  0.37891973    -0.74200
C2511       C  0.60392261  0.77384621  0.39269472     0.77600
C2512       C  0.66507716  0.76363911  0.99908230     0.78100
C2513       C  0.73726041  0.83851077  0.39434406     0.77100
C2514       C  0.74517096  0.90424076  0.99953663     0.77500
C2515       C  0.60450159  0.83783934  0.99860121     0.78600
C2516       C  0.66798019  0.90655219  0.39721074     0.77600
Zn2517     Zn  0.86344426  0.79903518  0.45555755     1.49700
Zn2518     Zn  0.91583674  0.85497600  0.40659682     1.49400
Zn2519     Zn  0.93547887  0.84642736  0.99081227     1.49100
Zn2520     Zn  0.93462439  0.79969058  0.43299286     1.49500
O2521       O  0.91097819  0.82216867  0.44547342    -1.83600
O2522       O  0.83419090  0.81145237  0.42319584    -0.74300
O2523       O  0.93159531  0.89736840  0.43795049    -0.74100
O2524       O  0.90850890  0.82772056  0.03649839    -0.73600
O2525       O  0.87123502  0.84668400  0.38462692    -0.74300
O2526       O  0.85812891  0.80285067  0.01369873    -0.73900
O2527       O  0.93483223  0.88606684  0.98414001    -0.74500
O2528       O  0.97958967  0.81114715  0.46081620    -0.73800
O2529       O  0.94205146  0.85066989  0.36194073    -0.74600
O2530       O  0.98081794  0.85306185  0.00210819    -0.74000
O2531       O  0.94429322  0.80658754  0.37921150    -0.74500
O2532       O  0.89877259  0.75337674  0.44108117    -0.74400
O2533       O  0.85142482  0.75311032  0.44765542    -0.74200
C2534       C  0.84143305  0.83036043  0.39534257     0.77600
C2535       C  0.94204519  0.89437774  0.46899211     0.78100
C2536       C  0.87772740  0.81298231  0.04091298     0.77100
C2537       C  0.99322702  0.83568275  0.99333251     0.77500
C2538       C  0.94757779  0.82731027  0.35485543     0.78600
C2539       C  0.86767114  0.73859381  0.44490103     0.77600
C2540       C  0.81538378  0.83428705  0.37524951     0.03600
C2541       C  0.81975933  0.84373771  0.33794570    -0.12500
C2542       C  0.79756936  0.85032093  0.31952143     0.01100
C2543       C  0.77043635  0.84721624  0.33794266    -0.11000
C2544       C  0.76487608  0.83811318  0.37473485     0.03600
C2545       C  0.78739801  0.83131554  0.39326899    -0.10500
H2546       H  0.84097459  0.84685332  0.32344734     0.09200
H2547       H  0.75444660  0.85366149  0.32383356     0.06700
H2548       H  0.78384657  0.82490479  0.42204305     0.06600
C2549       C  0.83012550  0.98503264  0.00878829     0.03600
C2550       C  0.83908512  0.97915676  0.04377735    -0.12500
C2551       C  0.81743005  0.95151847  0.06467672     0.01100
C2552       C  0.78695980  0.92823214  0.04973633    -0.11000
C2553       C  0.77693833  0.93218371  0.01487757     0.03600
C2554       C  0.79848677  0.96129723  0.99477321    -0.10500
H2555       H  0.85448196  0.50433774  0.06684598     0.09200
H2556       H  0.77070937  0.90664830  0.06562492     0.06700
H2557       H  0.79155982  0.97060766  0.47320650     0.06600
C2558       C  0.65790239  0.98199569  0.38289633     0.03600
C2559       C  0.64695391  0.97679077  0.34608783    -0.12500
C2560       C  0.64239365  0.94917079  0.32617801     0.01100
C2561       C  0.65055563  0.92741594  0.34301460    -0.11000
C2562       C  0.66185299  0.93177304  0.37930192     0.03600
C2563       C  0.66492582  0.95912457  0.39925267    -0.10500
H2564       H  0.64898476  0.49320020  0.33310364     0.09200
H2565       H  0.64737547  0.90630183  0.32794626     0.06700
H2566       H  0.67338047  0.96305242  0.42738121     0.06600
C2567       C  0.85029379  0.65436018  0.44469852     0.80700
N2568       N  0.86648282  0.68736967  0.44487412    -0.77600
C2569       C  0.84984355  0.70329638  0.44608690     0.83200
N2570       N  0.81679708  0.68624248  0.44772347    -0.77500
C2571       C  0.80048947  0.65309608  0.44697673     0.83300
N2572       N  0.81717883  0.63703986  0.44527883    -0.79200
C2573       C  0.90662733  0.92034507  0.00680147    -0.01300
C2574       C  0.92294517  0.92640582  0.97291695     0.08300
C2575       C  0.93659505  0.95752932  0.95778787    -0.01500
C2576       C  0.93927918  0.98258259  0.98045162    -0.01500
C2577       C  0.93673406  0.97814275  0.01884831     0.08500
C2578       C  0.91661280  0.94615255  0.03166475    -0.01700
Br2579     Br  0.47318049  0.90007139  0.10985954    -0.00200
Br2580     Br  0.87010917  0.87773808  0.01685290    -0.00300
Br2581     Br  0.93796323  0.01813753  0.95931609    -0.00200
Br2582     Br  0.87110414  0.89091333  0.46592960    -0.00200
C2583       C  0.95662782  0.56539571  0.02755039    -0.01300
C2584       C  0.94716262  0.55177900  0.99185042     0.08300
C2585       C  0.91130749  0.50690870  0.48673625    -0.01500
C2586       C  0.90621206  0.50092676  0.01887195    -0.01500
C2587       C  0.91886324  0.51367704  0.05405594     0.08500
C2588       C  0.93754790  0.54784483  0.05768596    -0.01700
Br2589     Br  0.94824652  0.56678249  0.10600197    -0.00200
Br2590     Br  0.99623955  0.60717940  0.03543328    -0.00300
Br2591     Br  0.88234965  0.96366299  0.51460850    -0.00200
Br2592     Br  0.89151705  0.49201290  0.43900677    -0.00200
C2593       C  0.53703365  0.51204505  0.48083194    -0.01300
C2594       C  0.56515796  0.53576096  0.99141550     0.08300
C2595       C  0.56799635  0.54665336  0.02800612    -0.01500
C2596       C  0.54042311  0.53309839  0.05076008    -0.01500
C2597       C  0.51063826  0.50739463  0.03753856     0.08500
C2598       C  0.50730569  0.49894456  0.99989872    -0.01700
Br2599     Br  0.46859471  0.97517316  0.98004684    -0.00200
Br2600     Br  0.53221158  0.49272233  0.43300093    -0.00300
Br2601     Br  0.54267739  0.55147531  0.09848462    -0.00200
Br2602     Br  0.60991104  0.57961481  0.04721211    -0.00200
C2603       C  0.94534305  0.02425656  0.28852994    -0.01300
C2604       C  0.94113624  0.00578766  0.32044538     0.08300
C2605       C  0.91182910  0.97592759  0.32279860    -0.01500
C2606       C  0.90192787  0.95709470  0.29070112    -0.01500
C2607       C  0.90985957  0.97312718  0.25578398     0.08500
C2608       C  0.92892598  0.00795238  0.25572441    -0.01700
Br2609     Br  0.93671973  0.03285310  0.21141677    -0.00200
Br2610     Br  0.97648502  0.07041461  0.28946101    -0.00300
Br2611     Br  0.88942423  0.91154165  0.29691718    -0.00200
Br2612     Br  0.94138300  0.51820839  0.35975779    -0.00200
C2613       C  0.57909850  0.58826263  0.32788980    -0.01300
C2614       C  0.57177212  0.55682978  0.31841014     0.08300
C2615       C  0.59029568  0.55625735  0.28852540    -0.01500
C2616       C  0.59320035  0.57571537  0.25783986    -0.01500
C2617       C  0.58310585  0.59894871  0.26213056     0.08500
C2618       C  0.58161707  0.60874710  0.29873777    -0.01700
Br2619     Br  0.58380535  0.64912791  0.30996509    -0.00200
Br2620     Br  0.07081461  0.59327801  0.37257149    -0.00300
Br2621     Br  0.61017753  0.57002279  0.21233618    -0.00200
Br2622     Br  0.60049526  0.52204159  0.28556449    -0.00200
C2623       C  0.51799728  0.00932073  0.19408427    -0.01300
C2624       C  0.49365541  0.99232021  0.22035518     0.08300
C2625       C  0.47953169  0.95842641  0.22455986    -0.01500
C2626       C  0.49396940  0.94273658  0.20749122    -0.01500
C2627       C  0.52388348  0.96196305  0.18904696     0.08500
C2628       C  0.53482601  0.99468982  0.18002329    -0.01700
Br2629     Br  0.57485718  0.01989110  0.15299708    -0.00200
Br2630     Br  0.53162339  0.05417370  0.18378878    -0.00300
Br2631     Br  0.47624568  0.89653015  0.21635588    -0.00200
Br2632     Br  0.01422487  0.92278604  0.35293315    -0.00200
C2633       C  0.49141075  0.01037858  0.74003025     0.80700
N2634       N  0.51164763  0.50348196  0.77757109    -0.77600
C2635       C  0.52300064  0.52938802  0.80066749     0.83200
N2636       N  0.00832725  0.52705868  0.83765198    -0.77500
C2637       C  0.97711463  0.02721910  0.79822339     0.83300
N2638       N  0.96692419  0.99630429  0.78686855    -0.79200
C2639       C  0.65015129  0.84991700  0.69521991     0.80700
N2640       N  0.68324449  0.86681503  0.69396337    -0.77600
C2641       C  0.69969180  0.85048683  0.69551799     0.83200
N2642       N  0.68316881  0.81751095  0.69797021    -0.77500
C2643       C  0.65026077  0.80070870  0.69839294     0.83300
N2644       N  0.63358307  0.81677760  0.69716111    -0.79200
C2645       C  0.84177311  0.82153844  0.63071495     0.03600
C2646       C  0.83429454  0.79120046  0.64720035    -0.12500
C2647       C  0.83935432  0.76759471  0.62820369     0.01100
C2648       C  0.85058229  0.77447056  0.59186175    -0.11000
C2649       C  0.85785965  0.80406984  0.57506577     0.03600
C2650       C  0.85378033  0.82717426  0.59472154    -0.10500
H2651       H  0.82534704  0.78638474  0.67510332     0.09200
H2652       H  0.85491310  0.75731132  0.57690616     0.06700
H2653       H  0.85957095  0.84948119  0.58163468     0.06600
Zn2654     Zn  0.58691384  0.88199722  0.73410841     1.49700
Zn2655     Zn  0.54446845  0.88614843  0.67623669     1.49400
Zn2656     Zn  0.60750839  0.95594649  0.71224884     1.49100
Zn2657     Zn  0.61917950  0.91454067  0.65636926     1.49500
O2658       O  0.58960579  0.91069568  0.69493083    -1.83600
O2659       O  0.54060293  0.85231327  0.75653275    -0.74300
O2660       O  0.53314274  0.91971915  0.66931739    -0.74100
O2661       O  0.62567533  0.96007211  0.76638827    -0.73600
O2662       O  0.50951050  0.85217564  0.71157026    -0.74300
O2663       O  0.61550148  0.90931904  0.77501489    -0.73900
O2664       O  0.56853451  0.96230625  0.70434525    -0.74500
O2665       O  0.65053397  0.96164195  0.63681483    -0.73800
O2666       O  0.53991406  0.86483094  0.62697279    -0.74600
O2667       O  0.64510386  0.99178060  0.67931082    -0.74000
O2668       O  0.59255317  0.88758530  0.61380547    -0.74500
O2669       O  0.64312928  0.89277817  0.67485181    -0.74400
O2670       O  0.60718486  0.85679012  0.71515020    -0.74200
C2671       C  0.51224540  0.84264460  0.74331587     0.77600
C2672       C  0.54255080  0.94714086  0.68462967     0.78100
C2673       C  0.62838762  0.93889417  0.78571083     0.77100
C2674       C  0.65828871  0.98977157  0.64961437     0.77500
C2675       C  0.56257110  0.86908222  0.60520331     0.78600
C2676       C  0.63249422  0.86736145  0.69496794     0.77600
C2677       C  0.68467501  0.51999689  0.63190992     0.03600
C2678       C  0.67843403  0.52480061  0.59513372    -0.12500
C2679       C  0.69990672  0.55417703  0.57618158     0.01100
C2680       C  0.72902454  0.57790991  0.59325259    -0.11000
C2681       C  0.73639032  0.57415123  0.62927562     0.03600
C2682       C  0.71364049  0.54518144  0.64870944    -0.10500
H2683       H  0.65226790  0.00763318  0.58018274     0.09200
H2684       H  0.74565501  0.60023574  0.57874050     0.06700
H2685       H  0.71854401  0.54201652  0.67691811     0.06600
C2686       C  0.98465921  0.81667532  0.76624285     0.03600
C2687       C  0.98137705  0.82669372  0.80181155    -0.12500
C2688       C  0.95134186  0.81008558  0.82065144     0.01100
C2689       C  0.92500943  0.78184116  0.80506283    -0.11000
C2690       C  0.92792630  0.76989313  0.77108312     0.03600
C2691       C  0.95764941  0.78788827  0.75132085    -0.10500
H2692       H  0.00185446  0.84759128  0.81468444     0.09200
H2693       H  0.90215901  0.76860028  0.81995955     0.06700
H2694       H  0.95965332  0.77964404  0.72427846     0.06600
Zn2695     Zn  0.79609290  0.62741156  0.72203454     1.49700
Zn2696     Zn  0.83055429  0.70622201  0.72153318     1.49400
Zn2697     Zn  0.87330571  0.67075458  0.72254714     1.49100
Zn2698     Zn  0.83414606  0.66925030  0.64752014     1.49500
O2699       O  0.83356308  0.66853550  0.70221914    -1.83600
O2700       O  0.76439409  0.63684810  0.75104234    -0.74300
O2701       O  0.87192325  0.73764457  0.75171062    -0.74100
O2702       O  0.86313259  0.62829259  0.75011868    -0.73600
O2703       O  0.78528099  0.69060853  0.74450587    -0.74300
O2704       O  0.80943739  0.59566512  0.74431846    -0.73900
O2705       O  0.90314541  0.71530285  0.74718087    -0.74500
O2706       O  0.87695542  0.66778840  0.63072614    -0.73800
O2707       O  0.83248716  0.73615842  0.68176822    -0.74600
O2708       O  0.90185821  0.67075200  0.68328841    -0.74000
O2709       O  0.83687738  0.71429071  0.62986897    -0.74500
O2710       O  0.78931657  0.62614956  0.63002085    -0.74400
O2711       O  0.76727772  0.60010392  0.68220633    -0.74200
C2712       C  0.76186080  0.66238953  0.75404015     0.77600
C2713       C  0.89943739  0.73925013  0.75604386     0.78100
C2714       C  0.83731557  0.59992903  0.75314428     0.77100
C2715       C  0.90092771  0.66882593  0.64869411     0.77500
C2716       C  0.83564695  0.73744904  0.64721930     0.78600
C2717       C  0.76620363  0.60159888  0.64770824     0.77600
Zn2718     Zn  0.79521528  0.86155609  0.70286720     1.49700
Zn2719     Zn  0.85488995  0.92132380  0.66131962     1.49400
Zn2720     Zn  0.79690451  0.93306542  0.68544906     1.49100
Zn2721     Zn  0.83363879  0.92428318  0.74613720     1.49500
O2722       O  0.81931128  0.90916351  0.69683564    -1.83600
O2723       O  0.81018923  0.83696253  0.66870309    -0.74300
O2724       O  0.84462188  0.94023989  0.61416948    -0.74100
O2725       O  0.75027506  0.89922679  0.69290395    -0.73600
O2726       O  0.85659560  0.87804656  0.64613006    -0.74300
O2727       O  0.74914206  0.85114251  0.69566775    -0.73900
O2728       O  0.80231032  0.94466618  0.63208442    -0.74500
O2729       O  0.83593381  0.96749355  0.75989064    -0.73800
O2730       O  0.89278102  0.95991310  0.69082123    -0.74600
O2731       O  0.81058508  0.97636366  0.71502220    -0.74000
O2732       O  0.87715686  0.93160428  0.74129312    -0.74500
O2733       O  0.81230609  0.89112571  0.78563852    -0.74400
O2734       O  0.79751774  0.84562853  0.75463772    -0.74200
C2735       C  0.83616724  0.84691539  0.64976927     0.77600
C2736       C  0.82222101  0.94698491  0.60736582     0.78100
C2737       C  0.73501050  0.86797563  0.69456593     0.77100
C2738       C  0.82658399  0.98565044  0.74505837     0.77500
C2739       C  0.89309665  0.95903416  0.72592227     0.78600
C2740       C  0.80270989  0.86085021  0.78489304     0.77600
C2741       C  0.83500420  0.51706580  0.76568200     0.03600
C2742       C  0.85097717  0.52394505  0.80016118    -0.12500
C2743       C  0.86096658  0.55360628  0.81853453     0.01100
C2744       C  0.85592140  0.57737512  0.80240320    -0.11000
C2745       C  0.84021046  0.57208989  0.76857788     0.03600
C2746       C  0.82933501  0.54150193  0.75020188    -0.10500
H2747       H  0.85528736  0.50601246  0.81323988     0.09200
H2748       H  0.86400231  0.60029884  0.81677763     0.06700
H2749       H  0.81743029  0.53718250  0.72379637     0.06600
C2750       C  0.68256960  0.66519004  0.76571197     0.03600
C2751       C  0.67240865  0.64971148  0.80056243    -0.12500
C2752       C  0.69052932  0.63788018  0.81909213     0.01100
C2753       C  0.71948205  0.64263095  0.80265860    -0.11000
C2754       C  0.73099514  0.65888703  0.76933586     0.03600
C2755       C  0.71218166  0.66980816  0.75060532    -0.10500
H2756       H  0.64992707  0.64585058  0.81255203     0.09200
H2757       H  0.73402183  0.63412044  0.81625022     0.06700
H2758       H  0.72025133  0.68134659  0.72405198     0.06600
Zn2759     Zn  0.61411564  0.65743401  0.67996615     1.49700
Zn2760     Zn  0.54549014  0.65398412  0.71522195     1.49400
Zn2761     Zn  0.61853826  0.70534477  0.73663210     1.49100
Zn2762     Zn  0.58685440  0.70495137  0.65760600     1.49500
O2763       O  0.59037551  0.67961946  0.69633363    -1.83600
O2764       O  0.58312384  0.61113783  0.69477504    -0.74300
O2765       O  0.53984494  0.67352266  0.76341662    -0.74100
O2766       O  0.64770869  0.68847530  0.75938931    -0.73600
O2767       O  0.54790904  0.61477492  0.73238275    -0.74300
O2768       O  0.65434998  0.66510463  0.71060050    -0.73900
O2769       O  0.59180624  0.70816064  0.77699121    -0.74500
O2770       O  0.60860057  0.75041607  0.67689868    -0.73800
O2771       O  0.50875243  0.65102268  0.67914684    -0.74600
O2772       O  0.64387529  0.75101382  0.71818402    -0.74000
O2773       O  0.53979086  0.69108707  0.64076591    -0.74500
O2774       O  0.61329337  0.70455590  0.61445989    -0.74400
O2775       O  0.62831705  0.66792240  0.62511200    -0.74200
C2776       C  0.56819467  0.60525216  0.72548208     0.77600
C2777       C  0.56161057  0.69481198  0.78478150     0.78100
C2778       C  0.66087950  0.67385065  0.74408211     0.77100
C2779       C  0.63316817  0.76548246  0.69810110     0.77500
C2780       C  0.51138864  0.66946509  0.65204712     0.78600
C2781       C  0.62783448  0.68947715  0.60436603     0.77600
C2782       C  0.97863185  0.66299204  0.63370676     0.03600
C2783       C  0.95388038  0.66666119  0.65100075    -0.12500
C2784       C  0.92832345  0.66691694  0.63028802     0.01100
C2785       C  0.92811963  0.66336324  0.59216085    -0.11000
C2786       C  0.95175118  0.65889450  0.57465805     0.03600
C2787       C  0.97693163  0.65909117  0.59531208    -0.10500
H2788       H  0.95474862  0.66962048  0.68047690     0.09200
H2789       H  0.90817817  0.66179402  0.57614716     0.06700
H2790       H  0.49680275  0.65814303  0.57977184     0.06600
C2791       C  0.92788432  0.48373240  0.56770693     0.80700
N2792       N  0.47133093  0.51263893  0.56769038    -0.77600
C2793       C  0.48790547  0.49701314  0.56722874     0.83200
N2794       N  0.51152103  0.99135290  0.56807334    -0.77500
C2795       C  0.93343398  0.94563892  0.57860651     0.83300
N2796       N  0.92227769  0.96686227  0.57834619    -0.79200
Zn2797     Zn  0.65619500  0.54238919  0.96990464     1.49700
Zn2798     Zn  0.65019294  0.60559453  0.93205811     1.49400
Zn2799     Zn  0.70450166  0.61911809  0.48841377     1.49100
Zn2800     Zn  0.70190633  0.58438054  0.90919367     1.49500
O2801       O  0.67738629  0.58727644  0.94971678    -1.83600
O2802       O  0.61214067  0.53622733  0.47599237    -0.74300
O2803       O  0.65660717  0.64636977  0.96157873    -0.74100
O2804       O  0.70428284  0.59264703  0.53169390    -0.73600
O2805       O  0.60443225  0.57092336  0.94806642    -0.74300
O2806       O  0.67292556  0.54010382  0.51733195    -0.73900
O2807       O  0.69069288  0.65166293  0.50748616    -0.74500
O2808       O  0.74884371  0.60992146  0.92407478    -0.73800
O2809       O  0.65884331  0.61969733  0.87621457    -0.74600
O2810       O  0.74962387  0.64288767  0.96871996    -0.74000
O2811       O  0.69808947  0.60849276  0.86664259    -0.74500
O2812       O  0.68801635  0.53745139  0.89099744    -0.74400
O2813       O  0.65540147  0.50641244  0.93551582    -0.74200
C2814       C  0.59493350  0.54686431  0.97033798     0.77600
C2815       C  0.67375055  0.66256285  0.49282706     0.78100
C2816       C  0.69176627  0.56244148  0.53978431     0.77100
C2817       C  0.76399846  0.63453699  0.94542068     0.77500
C2818       C  0.68135108  0.62091131  0.85574082     0.78600
C2819       C  0.66948471  0.50907275  0.90476088     0.77600
C2820       C  0.66796569  0.68684218  0.51349182     0.03600
C2821       C  0.65508887  0.67916200  0.54956585    -0.12500
C2822       C  0.64485314  0.69859660  0.56796141     0.01100
C2823       C  0.65037374  0.72766476  0.55115262    -0.11000
C2824       C  0.66502895  0.73740230  0.51671397     0.03600
C2825       C  0.67300345  0.71637911  0.49733395    -0.10500
H2826       H  0.65170446  0.65728511  0.56276150     0.09200
H2827       H  0.64325806  0.74325533  0.56505286     0.06700
H2828       H  0.67984515  0.71854996  0.96876847     0.06600
C2829       C  0.51916195  0.68842529  0.87633700     0.03600
C2830       C  0.52447440  0.68153532  0.84004435    -0.12500
C2831       C  0.55301560  0.70361323  0.82051435     0.01100
C2832       C  0.57645756  0.73306815  0.83732762    -0.11000
C2833       C  0.57290787  0.74039906  0.87345004     0.03600
C2834       C  0.54367902  0.71813510  0.89265688    -0.10500
H2835       H  0.00548704  0.66165312  0.82454540     0.09200
H2836       H  0.59875656  0.74966138  0.82282306     0.06700
H2837       H  0.54061804  0.72319520  0.92084870     0.06600
Zn2838     Zn  0.86366227  0.57260783  0.93562745     1.49700
Zn2839     Zn  0.93583689  0.59243943  0.90443121     1.49400
Zn2840     Zn  0.93410218  0.64705346  0.95366657     1.49100
Zn2841     Zn  0.91897932  0.58485785  0.49344913     1.49500
O2842       O  0.91003849  0.59926916  0.94477592    -1.83600
O2843       O  0.85707684  0.55992975  0.88201389    -0.74300
O2844       O  0.97456298  0.63529614  0.88544883    -0.74100
O2845       O  0.89794581  0.65509157  0.94330550    -0.73600
O2846       O  0.90521911  0.56978323  0.86046905    -0.74300
O2847       O  0.85074679  0.60605112  0.94080127    -0.73900
O2848       O  0.97493171  0.67409736  0.91966366    -0.74500
O2849       O  0.93075902  0.61392927  0.53561537    -0.73800
O2850       O  0.95476870  0.56644602  0.92811237    -0.74600
O2851       O  0.94990768  0.66206899  0.50881501    -0.74000
O2852       O  0.96030019  0.59190475  0.47339129    -0.74500
O2853       O  0.87838514  0.53938714  0.50951797    -0.74400
O2854       O  0.83647183  0.53067825  0.96955441    -0.74200
C2855       C  0.87501083  0.56030679  0.85583201     0.77600
C2856       C  0.98752211  0.66546262  0.89419237     0.78100
C2857       C  0.86677752  0.63739730  0.94116986     0.77100
C2858       C  0.94436049  0.64469206  0.53757945     0.77500
C2859       C  0.95745231  0.57475724  0.96160117     0.78600
C2860       C  0.84859506  0.52194924  0.49892336     0.77600
C2861       C  0.51804710  0.82453994  0.51674010     0.03600
C2862       C  0.52388534  0.83839957  0.55248478    -0.12500
C2863       C  0.55489915  0.85239293  0.56916723     0.01100
C2864       C  0.58021953  0.85187123  0.55072591    -0.11000
C2865       C  0.57569322  0.83790640  0.51631663     0.03600
C2866       C  0.54447802  0.82406617  0.49890823    -0.10500
H2867       H  0.00713806  0.84657669  0.56234969     0.09200
H2868       H  0.60406116  0.86215909  0.56352764     0.06700
H2869       H  0.54117866  0.81493363  0.97093360     0.06600
Zn2870     Zn  0.66994339  0.83510051  0.89282439     1.49700
Zn2871     Zn  0.63044726  0.79719914  0.96575412     1.49400
Zn2872     Zn  0.70844655  0.83304147  0.96847142     1.49100
Zn2873     Zn  0.67511571  0.87671117  0.96699061     1.49500
O2874       O  0.67121412  0.83580117  0.94743492    -1.83600
O2875       O  0.62599140  0.79189435  0.87489928    -0.74300
O2876       O  0.64222428  0.76853923  0.49406480    -0.69900
O2877       O  0.73516896  0.83069926  0.92890870    -0.73600
O2878       O  0.60074347  0.76914648  0.92690288    -0.74300
O2879       O  0.71234456  0.83319985  0.87666227    -0.73900
O2880       O  0.69640857  0.79299185  0.49427438    -0.74500
O2881       O  0.72158182  0.91215492  0.49447400    -0.73800
O2882       O  0.60185716  0.81160447  0.49019965    -0.74600
O2883       O  0.74370869  0.88070406  0.49692115    -0.74000
O2884       O  0.63210052  0.86571208  0.49832061    -0.74500
O2885       O  0.67301334  0.90387996  0.92658114    -0.74400
O2886       O  0.66889417  0.87797278  0.87436513    -0.74200
C2887       C  0.60128772  0.76899981  0.89235706     0.77600
C2888       C  0.66825209  0.76789739  0.50055319     0.78100
C2889       C  0.73478520  0.83099683  0.89427737     0.77100
C2890       C  0.74586946  0.90849611  0.50207237     0.77500
C2891       C  0.60461573  0.83852759  0.50014733     0.78600
C2892       C  0.66989869  0.90213815  0.89198287     0.77600
Zn2893     Zn  0.86556900  0.80026200  0.95896009     1.49700
Zn2894     Zn  0.91394245  0.84915809  0.90397486     1.49400
Zn2895     Zn  0.93470381  0.83880004  0.49157836     1.49100
Zn2896     Zn  0.93501357  0.79914520  0.93850508     1.49500
O2897       O  0.91280641  0.82343389  0.94687459    -1.83600
O2898       O  0.83530449  0.81211940  0.92795752    -0.74300
O2899       O  0.92738830  0.89395093  0.92520466    -0.74100
O2900       O  0.90304377  0.82737790  0.53445819    -0.73600
O2901       O  0.86879338  0.83760874  0.88200842    -0.74300
O2902       O  0.85341175  0.80015739  0.50987669    -0.73900
O2903       O  0.95960917  0.88183712  0.46931302    -0.74500
O2904       O  0.97831074  0.81258364  0.96974407    -0.73800
O2905       O  0.93901256  0.84203395  0.86153544    -0.74600
O2906       O  0.96978268  0.83077952  0.51001816    -0.74000
O2907       O  0.94558374  0.80209134  0.88455386    -0.74500
O2908       O  0.89869305  0.75295756  0.94651148    -0.74400
O2909       O  0.85187969  0.75382465  0.95028453    -0.74200
C2910       C  0.84050052  0.82575552  0.89644547     0.77600
C2911       C  0.92957798  0.90143515  0.95922519     0.78100
C2912       C  0.87208578  0.81146959  0.53777063     0.77100
C2913       C  0.98802192  0.82292559  0.49322868     0.77500
C2914       C  0.94645269  0.81971258  0.85772573     0.78600
C2915       C  0.86747409  0.73864603  0.94798666     0.77600
C2916       C  0.81401077  0.82877386  0.87617115     0.03600
C2917       C  0.81855134  0.83871687  0.83893104    -0.12500
C2918       C  0.79532854  0.84350834  0.82014947     0.01100
C2919       C  0.76731002  0.83847442  0.83808209    -0.11000
C2920       C  0.76223646  0.83015190  0.87503062     0.03600
C2921       C  0.78547193  0.82469644  0.89395890    -0.10500
H2922       H  0.84074370  0.84402387  0.82483412     0.09200
H2923       H  0.75056382  0.84370024  0.82364097     0.06700
H2924       H  0.78202836  0.81857079  0.92280931     0.06600
C2925       C  0.82891397  0.99084747  0.51594928     0.03600
C2926       C  0.83656053  0.98447211  0.55157137    -0.12500
C2927       C  0.81605893  0.95431401  0.56950675     0.01100
C2928       C  0.78685699  0.93080450  0.55262721    -0.11000
C2929       C  0.77707702  0.93626079  0.51848732     0.03600
C2930       C  0.79831251  0.96652989  0.50015724    -0.10500
H2931       H  0.85568720  0.50374337  0.56817566     0.09200
H2932       H  0.77117478  0.90783981  0.56664127     0.06700
H2933       H  0.79114061  0.96490173  0.96793462     0.06600
C2934       C  0.66621465  0.98094675  0.87761437     0.03600
C2935       C  0.65373586  0.97592741  0.84150754    -0.12500
C2936       C  0.64615342  0.94725504  0.82176738     0.01100
C2937       C  0.65337758  0.92439084  0.83781726    -0.11000
C2938       C  0.66603539  0.92859699  0.87352182     0.03600
C2939       C  0.67188300  0.95699499  0.89332333    -0.10500
H2940       H  0.64814017  0.49141096  0.83433889     0.09200
H2941       H  0.64784815  0.90235326  0.82299757     0.06700
H2942       H  0.68099314  0.96064815  0.92117176     0.06600
C2943       C  0.84877217  0.65416649  0.94059547     0.80700
N2944       N  0.86524455  0.68708924  0.94322131    -0.77600
C2945       C  0.84893480  0.70325189  0.94618934     0.83200
N2946       N  0.81578767  0.68636875  0.94697151    -0.77500
C2947       C  0.79928279  0.65323588  0.94379356     0.83300
N2948       N  0.81576722  0.63714314  0.94050561    -0.79200
C2949       C  0.94262358  0.89433467  0.53827667    -0.01300
C2950       C  0.92823937  0.89682031  0.50478346     0.08300
C2951       C  0.89872337  0.89748828  0.50756463    -0.01500
C2952       C  0.88905048  0.90252588  0.54246687    -0.01500
C2953       C  0.91051353  0.91000806  0.57225298     0.08500
C2954       C  0.92730960  0.89317528  0.57161165    -0.01700
Br2955     Br  0.54255275  0.94614925  0.58522975    -0.00200
Br2956     Br  0.98501384  0.89829438  0.54138976    -0.00300
Br2957     Br  0.84466908  0.89156244  0.55199583    -0.00200
Br2958     Br  0.95116469  0.96563684  0.90778339    -0.00200
C2959       C  0.94582562  0.55037399  0.52988782    -0.01300
C2960       C  0.93824004  0.53876348  0.49303118     0.08300
C2961       C  0.91963152  0.52033531  0.98775442    -0.01500
C2962       C  0.89685030  0.48608661  0.51689736    -0.01500
C2963       C  0.90878044  0.49725460  0.55259767     0.08500
C2964       C  0.92522836  0.53104177  0.55827695    -0.01700
Br2965     Br  0.93203238  0.54692863  0.60794944    -0.00200
Br2966     Br  0.98645586  0.58965463  0.54286094    -0.00300
Br2967     Br  0.02734792  0.02105635  0.96599040    -0.00200
Br2968     Br  0.89568590  0.50595719  0.94202857    -0.00200
C2969       C  0.53477232  0.51255531  0.97703405    -0.01300
C2970       C  0.56679618  0.53932776  0.49102876     0.08300
C2971       C  0.57061749  0.55376269  0.52581890    -0.01500
C2972       C  0.54507263  0.53983966  0.55129325    -0.01500
C2973       C  0.51593782  0.51083859  0.54224217     0.08500
C2974       C  0.51100711  0.49907322  0.50569203    -0.01700
Br2975     Br  0.47782689  0.97844239  0.48797952    -0.00200
Br2976     Br  0.53121505  0.49902675  0.92651437    -0.00300
Br2977     Br  0.54936855  0.56218366  0.59691154    -0.00200
Br2978     Br  0.61163213  0.59175213  0.53922270    -0.00200
C2979       C  0.94989754  0.04651926  0.75825338    -0.01300
C2980       C  0.95362860  0.03882180  0.79438323     0.08300
C2981       C  0.92409608  0.01551220  0.81011550    -0.01500
C2982       C  0.90351215  0.98754311  0.78870248    -0.01500
C2983       C  0.90831084  0.98921193  0.74955020     0.08500
C2984       C  0.92818168  0.02102814  0.73457345    -0.01700
Br2985     Br  0.92507759  0.03079166  0.68400438    -0.00200
Br2986     Br  0.96684267  0.09145034  0.74584448    -0.00300
Br2987     Br  0.87443271  0.94823432  0.81549503    -0.00200
Br2988     Br  0.91314279  0.46258215  0.88304687    -0.00200
C2989       C  0.57104926  0.57810947  0.82151238    -0.01300
C2990       C  0.55839170  0.54565918  0.81094647     0.08300
C2991       C  0.57659099  0.54316628  0.78195464    -0.01500
C2992       C  0.58157864  0.56327534  0.75107447    -0.01500
C2993       C  0.57630978  0.58989496  0.75598605     0.08500
C2994       C  0.57670131  0.60027630  0.79290018    -0.01700
Br2995     Br  0.58305705  0.64222045  0.80500173    -0.00200
Br2996     Br  0.07079351  0.59324602  0.87899048    -0.00300
Br2997     Br  0.59285756  0.55308332  0.70445027    -0.00200
Br2998     Br  0.58288771  0.50643185  0.78046487    -0.00200
C2999       C  0.51375516  0.00671801  0.68190422    -0.01300
C3000       C  0.48903854  0.99103728  0.70821841     0.08300
C3001       C  0.47477922  0.95724573  0.71423459    -0.01500
C3002       C  0.48943716  0.94087670  0.69934193    -0.01500
C3003       C  0.52029051  0.95955013  0.68268657     0.08500
C3004       C  0.53116387  0.99169143  0.67094647    -0.01700
Br3005     Br  0.57074174  0.01562531  0.64282353    -0.00200
Br3006     Br  0.52722997  0.05062780  0.66691675    -0.00300
Br3007     Br  0.47006060  0.89441355  0.70810745    -0.00200
Br3008     Br  0.97773383  0.92269474  0.83289855    -0.00200
loop_ 
_geom_bond_atom_site_label_1 
_geom_bond_atom_site_label_2 
_geom_bond_distance 
_geom_bond_site_symmetry_2 
_ccdc_geom_bond_type 
C1          C368   1.443       .  S
C1          N754   1.347   1_655  A
C1         N1510   1.331       .  A
N2            C3   1.347   1_565  A
N2          C753   1.343   1_455  A
C3          C358   1.477       .  S
C3         N1508   1.370   1_455  A
N4         C1507   1.369       .  A
N4          C757   1.363       .  A
C5          C348   1.465       .  S
C5            N6   1.342       .  A
C5          N756   1.360       .  A
N6         C1505   1.323       .  A
C7           C44   1.452       .  S
C7            N8   1.355       .  A
C7           N12   1.356       .  A
N8            C9   1.356       .  A
C9          C105   1.455       .  S
C9           N10   1.352       .  A
N10          C11   1.352       .  A
C11         C147   1.448       .  S
C11          N12   1.356       .  A
C13         C103   1.539       .  S
C13          C14   1.428       .  A
C13          C18   1.406       .  A
C14          C15   1.439       .  A
C14          H19   1.083       .  S
C15          C84   1.514       .  S
C15          C16   1.404       .  A
C16          C17   1.402       .  A
C16          H20   1.084       .  S
C17         C280   1.493       .  S
C17          C18   1.414       .  A
C18          H21   1.035       .  S
Zn22         O26   1.941       .  S
Zn22         O27   2.065       .  S
Zn22         O31   2.003       .  S
Zn22         O38   2.008       .  S
Zn23         O26   1.979       .  S
Zn23         O28   1.945       .  S
Zn23         O30   2.068       .  S
Zn23         O34   2.025       .  S
Zn24         O26   1.966       .  S
Zn24         O29   2.111       .  S
Zn24         O32   2.023       .  S
Zn24         O35   2.112       .  S
Zn25         O26   1.932       .  S
Zn25         O33   2.077       .  S
Zn25         O36   2.018       .  S
Zn25         O37   2.009       .  S
O27          C39   1.275       .  A
O28          C40   1.268       .  A
O29          C41   1.285       .  A
O30          C39   1.275       .  A
O31          C41   1.273       .  A
O32          C40   1.282       .  A
O33          C42   1.278       .  A
O34          C43   1.271       .  A
O35          C42   1.282       .  A
O36          C43   1.276       .  A
O37          C44   1.277       .  A
O38          C44   1.277       .  A
C39        C1558   1.498   1_455  S
C40         C371   1.439       .  S
C41         C304   1.503       .  S
C42         C797   1.514       .  S
C43         C231   1.485       .  S
C45         C794   1.506   1_545  S
C45          C46   1.409       .  A
C45          C50   1.413       .  A
C46          C47   1.414       .  A
C46         H803   1.084       .  S
C47         C184   1.478       .  S
C47          C48   1.404       .  A
C48          C49   1.398       .  A
C48          H52   1.084       .  S
C49          C85   1.496       .  S
C49          C50   1.425       .  A
C50          H53   1.083       .  S
H51         C798   1.084       .  S
C54        C1543   1.507       .  S
C54          C55   1.420       .  A
C54          C59   1.419       .  A
C55          C56   1.415       .  A
C55          H60   1.083       .  S
C56         C282   1.485       .  S
C56          C57   1.405       .  A
C57          C58   1.397       .  A
C57          H61   1.085       .  S
C58          C81   1.494       .  S
C58          C59   1.417       .  A
C59          H62   1.083       .  S
Zn63         O67   1.982       .  S
Zn63         O68   2.082       .  S
Zn63         O72   2.076       .  S
Zn63         O79   1.954       .  S
Zn64         O67   1.994       .  S
Zn64         O69   2.068       .  S
Zn64         O71   2.077       .  S
Zn64         O75   1.995       .  S
Zn65         O67   1.987       .  S
Zn65         O70   2.073       .  S
Zn65         O73   2.055       .  S
Zn65         O76   2.006       .  S
Zn66         O67   1.993       .  S
Zn66         O74   2.149       .  S
Zn66         O77   2.160       .  S
Zn66         O78   2.128       .  S
O68          C80   1.283       .  A
O69          C81   1.283       .  A
O70          C82   1.282       .  A
O71          C80   1.278       .  A
O72          C82   1.278       .  A
O73          C81   1.279       .  A
O74          C83   1.292       .  A
O75          C84   1.267       .  A
O76          C83   1.268       .  A
O77          C84   1.294       .  A
O78          C85   1.290       .  A
O79          C85   1.264       .  A
C80         C122   1.507       .  S
C82         C113   1.504       .  S
C83         C152   1.515       .  S
Zn86         O90   1.962       .  S
Zn86         O91   2.084       .  S
Zn86         O95   2.024       .  S
Zn86        O102   2.066       .  S
Zn87         O90   1.979       .  S
Zn87         O92   2.118       .  S
Zn87         O94   2.191       .  S
Zn87         O98   2.138       .  S
Zn88         O90   1.959       .  S
Zn88         O93   2.000       .  S
Zn88         O96   2.009       .  S
Zn88         O99   2.121       .  S
Zn89         O90   1.920       .  S
Zn89         O97   2.061       .  S
Zn89        O100   1.926       .  S
Zn89        O101   1.979       .  S
O91         C103   1.281       .  A
O92         C104   1.287       .  A
O93         C105   1.279       .  A
O94         C103   1.299       .  A
O95         C105   1.283       .  A
O96         C104   1.273       .  A
O97         C106   1.278       .  A
O98         C107   1.284       .  A
O99         C106   1.280       .  A
O100        C107   1.253       .  A
O101        C108   1.265       .  A
O102        C108   1.274       .  A
C104        C295   1.490       .  S
C106        C861   1.523       .  S
C107        C351   1.514       .  S
C108        C286   1.472       .  S
C109        C858   1.522   1_545  S
C109        C110   1.419       .  A
C109        C114   1.431       .  A
C110        C111   1.402       .  A
C110        H115   1.083       .  S
C111        C223   1.478       .  S
C111        C112   1.399       .  A
C112        C113   1.399       .  A
C112        H116   1.085       .  S
C113        C114   1.432       .  A
C114        H117   1.083       .  S
C118        C146   1.518       .  S
C118        C119   1.425       .  A
C118        C123   1.429       .  A
C119        C120   1.418       .  A
C119        H124   1.084       .  S
C120        C186   1.507       .  S
C120        C121   1.412       .  A
C121        C122   1.394       .  A
C121        H125   1.084       .  S
C122        C123   1.424       .  A
C123        H126   1.083       .  S
Zn127       O131   1.987       .  S
Zn127       O132   2.030       .  S
Zn127       O136   2.090       .  S
Zn127       O143   2.120       .  S
Zn128       O131   1.958       .  S
Zn128       O133   2.053       .  S
Zn128       O135   2.005       .  S
Zn128       O139   2.127       .  S
Zn129       O131   1.950       .  S
Zn129       O134   2.107       .  S
Zn129       O137   2.010       .  S
Zn129       O140   1.991       .  S
Zn130       O131   1.909       .  S
Zn130       O138   2.014       .  S
Zn130       O141   2.094       .  S
Zn130       O142   2.003       .  S
O132        C144   1.284       .  A
O133        C145   1.277       .  A
O134        C146   1.280       .  A
O135        C144   1.280       .  A
O136        C146   1.277       .  A
O137        C145   1.274       .  A
O138        C147   1.277       .  A
O139        C148   1.285       .  A
O140        C147   1.276       .  A
O141        C148   1.280       .  A
O142        C149   1.277       .  A
O143        C149   1.287       .  A
C144        C361   1.493       .  S
C145        C199   1.488       .  S
C148       C1654   1.524   1_455  S
C149        C190   1.507       .  S
C150       C1652   1.524       .  S
C150        C151   1.426       .  A
C150        C155   1.414       .  A
C151        C152   1.436       .  A
C151        H156   1.083       .  S
C152        C153   1.404       .  A
C153        C154   1.402       .  A
C153        H157   1.084       .  S
C154        C226   1.484       .  S
C154        C155   1.416       .  A
C155       H1662   1.083       .  S
H158       C1659   1.083       .  S
C159        C331   1.462   1_565  S
C159       N1664   1.357   1_565  A
C159        N916   1.355       .  A
N160        C161   1.357       .  A
N160       C1663   1.342       .  A
C161        C341   1.483   1_545  S
C161        N914   1.360   1_445  A
N162        C913   1.345       .  A
N162       C1667   1.364       .  A
C163        C321   1.470       .  S
C163        N164   1.356       .  A
C163       N1666   1.365       .  A
N164        C911   1.353       .  A
Zn165       O169   1.973       .  S
Zn165       O181   2.100       .  S
Zn165       O546   1.953       .  S
Zn165       O550   2.052       .  S
Zn166       O169   2.000       .  S
Zn166       O171   2.119       .  S
Zn166       O173   2.050       .  S
Zn166       O177   2.127       .  S
Zn167       O545   1.960       .  S
Zn167       O172   2.026   1_556  S
Zn167       O175   2.092   1_556  S
Zn167       O554   1.990       .  S
Zn168       O169   1.930       .  S
Zn168       O176   2.000       .  S
Zn168       O179   1.986       .  S
Zn168       O180   2.085       .  S
O169       Zn543   1.958       .  S
O170       Zn541   1.915       .  S
O170        C558   1.264       .  A
O171        C559   1.281       .  A
O172        C184   1.276       .  A
O173        C182   1.285       .  A
O174       Zn541   2.021   1_554  S
O174        C184   1.273       .  A
O175        C183   1.278   1_554  A
O176        C185   1.275       .  A
O177        C186   1.287       .  A
O178       Zn543   1.995       .  S
O178        C185   1.275       .  A
O179        C186   1.274       .  A
O180        C187   1.277       .  A
O181        C187   1.279       .  A
C182        C714   1.458       .  S
C182        O546   1.272       .  A
C183        C188   1.523   1_556  S
C183        O547   1.283       .  A
C185        C315   1.446       .  S
C187       C1054   1.515   1_545  S
C188        C189   1.425       .  A
C188        C193   1.432   1_554  A
C189        C190   1.418       .  A
C189        H194   1.083       .  S
C190        C191   1.411       .  A
C191        C192   1.395       .  A
C191        H195   1.084       .  S
C192        C256   1.513       .  S
C192        C193   1.429   1_554  A
C193        H572   1.083       .  S
H196        C569   1.083       .  S
C197       C1728   1.512   1_455  S
C197        C198   1.412       .  A
C197        C202   1.418       .  A
C198        C199   1.412       .  A
C198       H1707   1.084       .  S
C199        C200   1.407       .  A
C200        C201   1.400       .  A
C200        H204   1.084       .  S
C201        C255   1.502       .  S
C201        C202   1.427       .  A
C202        H205   1.083       .  S
H203       C1702   1.083       .  S
Zn206       O210   1.926       .  S
Zn206       O211   1.997       .  S
Zn206       O215   1.979       .  S
Zn206       O222   2.111       .  S
Zn207       O210   2.004       .  S
Zn207       O212   2.129       .  S
Zn207       O214   2.086       .  S
Zn207       O218   2.125       .  S
Zn208       O210   1.958       .  S
Zn208       O213   2.009       .  S
Zn208       O216   2.113       .  S
Zn208       O595   2.095       .  S
Zn209       O586   1.896       .  S
Zn209       O217   1.979   1_556  S
Zn209       O220   1.979       .  S
Zn209       O221   2.137   1_556  S
O210       Zn585   1.884       .  S
O211        C223   1.273       .  A
O212        C224   1.289       .  A
O213        C225   1.283       .  A
O214        C223   1.283       .  A
O215        C225   1.277       .  A
O216        C224   1.285       .  A
O217        C226   1.263       .  A
O218        C227   1.276       .  A
O219       Zn584   2.105   1_554  S
O219        C226   1.279       .  A
O220        C603   1.243       .  A
O221        C228   1.287       .  A
O222        C604   1.280       .  A
C224       C1701   1.529       .  S
C225        C311   1.445       .  S
C227        C704   1.492       .  S
C227        O596   1.244       .  A
C228       C1045   1.534   1_545  S
C228        O598   1.278   1_554  A
C229       C1785   1.533   1_454  S
C229        C230   1.425       .  A
C229        C234   1.432   1_554  A
C230        C231   1.410       .  A
C230       H1739   1.083       .  S
C231        C232   1.392       .  A
C232        C233   1.388       .  A
C232        H236   1.085       .  S
C233        C259   1.494       .  S
C233        C234   1.435   1_554  A
C234        H613   1.083       .  S
H235       C1734   1.083       .  S
H237        C610   1.083       .  S
Zn238       O242   1.994       .  S
Zn238       O243   2.126       .  S
Zn238       O247   2.140       .  S
Zn238       O254   2.150       .  S
Zn239       O242   1.986       .  S
Zn239       O246   1.973       .  S
Zn239       O620   2.062       .  S
Zn239       O626   2.039       .  S
Zn240       O242   1.998       .  S
Zn240       O245   1.975       .  S
Zn240       O624   2.090       .  S
Zn240       O627   2.104       .  S
Zn241       O242   1.987       .  S
Zn241       O253   1.998       .  S
Zn241       O625   2.107       .  S
Zn241       O628   2.082       .  S
O243        C255   1.288       .  A
O244       Zn615   2.073       .  S
O244        C256   1.281   1_556  A
O245        C257   1.266       .  A
O246        C255   1.264       .  A
O247        C257   1.294       .  A
O248       Zn616   2.120   1_554  S
O248        C256   1.285       .  A
O249       Zn617   2.092       .  S
O249        C258   1.282   1_556  A
O250       Zn615   2.044       .  S
O250        C259   1.275   1_556  A
O251       Zn616   2.118   1_554  S
O251        C258   1.289       .  A
O252       Zn617   2.071   1_554  S
O252        C259   1.285       .  A
O253        C260   1.269       .  A
O254        C260   1.291       .  A
C257        C288   1.502       .  S
C258        C297   1.518       .  S
C260        C306   1.514       .  S
Zn261       O265   1.957       .  S
Zn261       O266   2.125       .  S
Zn261       O277   1.976       .  S
Zn261       O646   2.060       .  S
Zn262       O265   2.025       .  S
Zn262       O267   2.085       .  S
Zn262       O269   2.109       .  S
Zn262       O273   2.117       .  S
Zn263       O641   1.941       .  S
Zn263       O268   2.068   1_556  S
Zn263       O271   1.970       .  S
Zn263       O274   1.993   1_556  S
Zn264       O265   1.942       .  S
Zn264       O272   2.143       .  S
Zn264       O275   1.984       .  S
Zn264       O276   1.986       .  S
O265       Zn639   1.952       .  S
O266        C278   1.284       .  A
O267        C279   1.275       .  A
O268        C280   1.275       .  A
O269        C278   1.283       .  A
O270       Zn637   2.059   1_554  S
O270        C280   1.278       .  A
O271        C655   1.250       .  A
O272        C657   1.278       .  A
O273        C282   1.288       .  A
O274        C281   1.263       .  A
O275        C282   1.272       .  A
O276        C283   1.280       .  A
O277        C283   1.276       .  A
C278        C284   1.529       .  S
C279        C694   1.487       .  S
C279        O647   1.250       .  A
C281       C1733   1.520       .  S
C281        O648   1.282   1_554  A
C283        C313   1.439       .  S
C284        C285   1.419       .  A
C284        C289   1.425       .  A
C285        C286   1.417       .  A
C285        H290   1.083       .  S
C286        C287   1.394       .  A
C287        C288   1.393       .  A
C287        H291   1.085       .  S
C288        C289   1.433       .  A
C289        H292   1.083       .  S
C293        C980   1.539   1_554  S
C293        C294   1.423       .  A
C293        C298   1.438       .  A
C294        C295   1.413       .  A
C294       H1051   1.082       .  S
C295        C296   1.404       .  A
C296        C297   1.401       .  A
C296        H300   1.085       .  S
C297        C298   1.438       .  A
C298        H677   1.082   1_554  S
H299       C1046   1.083       .  S
H301        C674   1.083       .  S
C302        C939   1.507       .  S
C302        C303   1.415       .  A
C302        C307   1.416       .  A
C303        C304   1.415       .  A
C303       H1060   1.083       .  S
C304        C305   1.419       .  A
C305        C306   1.406       .  A
C305        H309   1.083       .  S
C306        C307   1.424       .  A
C307        H310   1.083       .  S
H308       C1055   1.084       .  S
C311        N312   1.346       .  A
C311        N316   1.356       .  A
N312        C313   1.346       .  A
C313        N314   1.353       .  A
N314        C315   1.353       .  A
C315        N316   1.356       .  A
C317        C318   1.431       .  A
C317        C322   1.404       .  A
C317       Br324   1.934       .  S
C318        C655   1.475   1_554  S
C318        C319   1.421       .  A
C319        C320   1.402       .  A
C319       Br702   1.923   1_554  S
C320        C321   1.406       .  A
C320       Br325   1.932       .  S
C321        C322   1.393       .  A
C322      Br1827   1.921       .  S
Br323      C1826   1.924       .  S
Br326       C695   1.921       .  S
C327        C328   1.422   1_554  A
C327        C332   1.400       .  A
C327       Br334   1.938       .  S
C328        C603   1.461       .  S
C328        C705   1.407       .  A
C329        C704   1.416       .  A
C329        C706   1.415   1_545  A
C329       Br336   1.929   1_545  S
C330        C331   1.413   1_565  A
C330        C705   1.402   1_564  A
C330      Br1463   1.898       .  S
C331        C332   1.399       .  A
C332       Br333   1.924       .  S
Br335      C1458   1.901       .  S
C337        C714   1.395       .  A
C337        C718   1.401   1_545  A
C337       Br344   1.927   1_545  S
C338        C558   1.467   1_554  S
C338        C339   1.415       .  A
C338        C713   1.410   1_545  A
C339        C340   1.406       .  A
C339       Br346   1.930       .  S
C340        C341   1.405   1_545  A
C340       Br345   1.923       .  S
C341        C342   1.410       .  A
C342        C713   1.412       .  A
C342      Br1095   1.918   1_455  S
Br343      C1094   1.925   1_656  S
C347        C348   1.401       .  A
C347        C352   1.416       .  A
C347       Br354   1.915       .  S
C348        C349   1.394       .  A
C349        C350   1.417       .  A
C349      Br1108   1.922       .  S
C350        C351   1.444       .  A
C350       Br355   1.930       .  S
C351        C352   1.421       .  A
C352       Br353   1.911       .  S
Br356      C1101   1.924       .  S
C357        C358   1.385       .  A
C357        C362   1.400       .  A
C357      Br1868   1.927       .  S
C358        C359   1.411       .  A
C359        C360   1.408       .  A
C359       Br366   1.926       .  S
C360        C361   1.416       .  A
C360       Br365   1.925       .  S
C361        C362   1.430       .  A
C362       Br363   1.900       .  S
Br364      C1861   1.919       .  S
C367        C368   1.405       .  A
C367        C372   1.401   1_655  A
C367       Br374   1.924       .  S
C368        C369   1.395       .  A
C369        C370   1.389       .  A
C369      Br1880   1.929       .  S
C370        C371   1.405   1_655  A
C370       Br375   1.922       .  S
C371        C372   1.401       .  A
C372       Br373   1.922       .  S
Br376      C1873   1.928       .  S
C377        C744   1.470       .  S
C377       N1130   1.358   1_655  A
C377       N1886   1.344       .  A
N378       C1129   1.348   1_445  A
N378        C379   1.349       .  A
C379        C734   1.489       .  S
C379       N1884   1.376       .  A
N380       C1883   1.367       .  A
N380       C1133   1.364       .  A
C381        C724   1.477       .  S
C381       N1132   1.363       .  A
C381        N382   1.350       .  A
N382       C1881   1.332       .  A
C383        C420   1.445       .  S
C383        N384   1.353       .  A
C383        N388   1.351       .  A
N384        C385   1.354       .  A
C385        C481   1.447       .  S
C385        N386   1.353       .  A
N386        C387   1.350       .  A
C387        C523   1.441       .  S
C387        N388   1.352       .  A
C389        C479   1.529       .  S
C389        C390   1.428       .  A
C389        C394   1.403       .  A
C390        C391   1.438       .  A
C390        H395   1.083       .  S
C391        C460   1.515       .  S
C391        C392   1.405       .  A
C392        C393   1.404       .  A
C392        H396   1.084       .  S
C393        C656   1.483       .  S
C393        C394   1.404       .  A
C394        H397   1.056       .  S
Zn398       O402   1.949       .  S
Zn398       O403   2.109       .  S
Zn398       O407   2.045       .  S
Zn398       O414   2.000       .  S
Zn399       O402   1.991       .  S
Zn399       O404   1.997       .  S
Zn399       O406   2.071       .  S
Zn399       O410   2.084       .  S
Zn400       O402   1.963       .  S
Zn400       O405   2.075       .  S
Zn400       O408   1.980       .  S
Zn400       O411   2.091       .  S
Zn401       O402   1.918       .  S
Zn401       O409   2.071       .  S
Zn401       O412   1.990       .  S
Zn401       O413   1.994       .  S
O403        C415   1.281       .  A
O404        C416   1.279       .  A
O405        C417   1.280       .  A
O406        C415   1.275       .  A
O407        C417   1.278       .  A
O408        C416   1.276       .  A
O409        C418   1.277       .  A
O410        C419   1.281       .  A
O411        C418   1.280       .  A
O412        C419   1.274       .  A
O413        C420   1.275       .  A
O414        C420   1.277       .  A
C415       C1934   1.511   1_455  S
C416        C747   1.474       .  S
C417        C680   1.498       .  S
C418       C1173   1.507       .  S
C419        C607   1.496       .  S
C421       C1170   1.511   1_545  S
C421        C422   1.412       .  A
C421        C426   1.418       .  A
C422        C423   1.414       .  A
C422       H1179   1.084       .  S
C423        C560   1.487       .  S
C423        C424   1.410       .  A
C424        C425   1.399       .  A
C424        H428   1.084       .  S
C425        C461   1.508       .  S
C425        C426   1.429       .  A
C426        H429   1.083       .  S
H427       C1174   1.084       .  S
C430       C1919   1.511       .  S
C430        C431   1.414       .  A
C430        C435   1.427       .  A
C431        C432   1.407       .  A
C431        H436   1.084       .  S
C432        C658   1.475       .  S
C432        C433   1.402       .  A
C433        C434   1.396       .  A
C433        H437   1.085       .  S
C434        C457   1.502       .  S
C434        C435   1.427       .  A
C435        H438   1.083       .  S
Zn439       O443   1.988       .  S
Zn439       O444   2.078       .  S
Zn439       O448   2.081       .  S
Zn439       O455   1.974       .  S
Zn440       O443   2.000       .  S
Zn440       O445   2.098       .  S
Zn440       O447   2.097       .  S
Zn440       O451   1.997       .  S
Zn441       O443   1.989       .  S
Zn441       O446   2.066       .  S
Zn441       O449   2.052       .  S
Zn441       O452   1.983       .  S
Zn442       O443   1.995       .  S
Zn442       O450   2.165       .  S
Zn442       O453   2.164       .  S
Zn442       O454   2.156       .  S
O444        C456   1.283       .  A
O445        C457   1.286       .  A
O446        C458   1.282       .  A
O447        C456   1.282       .  A
O448        C458   1.279       .  A
O449        C457   1.276       .  A
O450        C459   1.295       .  A
O451        C460   1.268       .  A
O452        C459   1.265       .  A
O453        C460   1.295       .  A
O454        C461   1.293       .  A
O455        C461   1.266       .  A
C456        C498   1.511       .  S
C458        C489   1.504       .  S
C459        C528   1.513       .  S
Zn462       O466   1.956       .  S
Zn462       O467   2.070       .  S
Zn462       O471   1.997       .  S
Zn462       O478   2.060       .  S
Zn463       O466   1.990       .  S
Zn463       O468   2.103       .  S
Zn463       O470   2.165       .  S
Zn463       O474   2.089       .  S
Zn464       O466   1.967       .  S
Zn464       O469   1.994       .  S
Zn464       O472   2.028       .  S
Zn464       O475   2.112       .  S
Zn465       O466   1.939       .  S
Zn465       O473   2.055       .  S
Zn465       O476   1.917       .  S
Zn465       O477   1.995       .  S
O467        C479   1.279       .  A
O468        C480   1.283       .  A
O469        C481   1.279       .  A
O470        C479   1.296       .  A
O471        C481   1.280       .  A
O472        C480   1.274       .  A
O473        C482   1.277       .  A
O474        C483   1.279       .  A
O475        C482   1.279       .  A
O476        C483   1.255       .  A
O477        C484   1.266       .  A
O478        C484   1.273       .  A
C480        C671   1.494       .  S
C482       C1237   1.518       .  S
C483        C727   1.499       .  S
C484        C662   1.473       .  S
C485       C1234   1.523   1_545  S
C485        C486   1.418       .  A
C485        C490   1.432       .  A
C486        C487   1.402       .  A
C486        H491   1.083       .  S
C487        C599   1.477       .  S
C487        C488   1.398       .  A
C488        C489   1.400       .  A
C488        H492   1.085       .  S
C489        C490   1.432       .  A
C490        H493   1.083       .  S
C494        C522   1.523       .  S
C494        C495   1.433       .  A
C494        C499   1.428       .  A
C495        C496   1.425       .  A
C495        H500   1.080       .  S
C496        C562   1.524       .  S
C496        C497   1.419       .  A
C497        C498   1.392       .  A
C497        H501   1.083       .  S
C498        C499   1.420       .  A
C499        H502   1.083       .  S
Zn503       O507   1.993       .  S
Zn503       O508   1.972       .  S
Zn503       O512   2.100       .  S
Zn503       O519   2.105       .  S
Zn504       O507   1.991       .  S
Zn504       O509   2.057       .  S
Zn504       O511   2.004       .  S
Zn504       O515   2.105       .  S
Zn505       O507   1.953       .  S
Zn505       O510   2.124       .  S
Zn505       O513   2.019       .  S
Zn505       O516   1.994       .  S
Zn506       O507   1.916       .  S
Zn506       O514   1.988       .  S
Zn506       O517   2.094       .  S
Zn506       O518   2.005       .  S
O508        C520   1.277       .  A
O509        C521   1.277       .  A
O510        C522   1.282       .  A
O511        C520   1.275       .  A
O512        C522   1.280       .  A
O513        C521   1.276       .  A
O514        C523   1.275       .  A
O515        C524   1.281       .  A
O516        C523   1.276       .  A
O517        C524   1.280       .  A
O518        C525   1.276       .  A
O519        C525   1.283       .  A
C520        C737   1.482       .  S
C521        C575   1.489       .  S
C524       C2030   1.520   1_455  S
C525        C566   1.503       .  S
C526       C2028   1.528       .  S
C526        C527   1.428       .  A
C526        C531   1.412       .  A
C527        C528   1.439       .  A
C527        H532   1.083       .  S
C528        C529   1.400       .  A
C529        C530   1.401       .  A
C529        H533   1.084       .  S
C530        C602   1.477       .  S
C530        C531   1.413       .  A
C531       H2038   1.081       .  S
H534       C2035   1.084       .  S
C535        C707   1.480       .  S
C535       N2040   1.349       .  A
C535       N1292   1.356   1_545  A
N536       C2039   1.352   1_545  A
N536        C537   1.333   1_545  A
C537        C717   1.468   1_665  S
C537       N1290   1.346       .  A
N538       C1289   1.340       .  A
N538       C2043   1.363       .  A
C539        C697   1.477       .  S
C539       N2042   1.368       .  A
C539        N540   1.358       .  A
N540       C1287   1.354       .  A
Zn541       O545   1.975       .  S
Zn541       O557   2.054       .  S
Zn542       O545   1.980       .  S
Zn542       O547   2.129       .  S
Zn542       O549   2.112       .  S
Zn542       O553   2.195       .  S
Zn543       O548   2.009       .  S
Zn543       O551   2.084       .  S
Zn544       O545   1.917       .  S
Zn544       O552   1.988       .  S
Zn544       O555   1.943       .  S
Zn544       O556   2.079       .  S
O548        C560   1.273       .  A
O549        C558   1.295       .  A
O550        C560   1.276       .  A
O551        C559   1.277       .  A
O552        C561   1.275       .  A
O553        C562   1.293       .  A
O554        C561   1.274       .  A
O555        C562   1.269       .  A
O556        C563   1.274       .  A
O557        C563   1.273       .  A
C559        C564   1.519       .  S
C561        C691   1.439       .  S
C563       C1430   1.504   1_545  S
C564        C565   1.424       .  A
C564        C569   1.428       .  A
C565        C566   1.417       .  A
C565        H570   1.083       .  S
C566        C567   1.408       .  A
C567        C568   1.393       .  A
C567        H571   1.084       .  S
C568        C632   1.503       .  S
C568        C569   1.426       .  A
C573       C2104   1.519   1_455  S
C573        C574   1.418       .  A
C573        C578   1.419       .  A
C574        C575   1.413       .  A
C574       H2083   1.083       .  S
C575        C576   1.404       .  A
C576        C577   1.396       .  A
C576        H580   1.084       .  S
C577        C631   1.498       .  S
C577        C578   1.428       .  A
C578        H581   1.083       .  S
H579       C2078   1.084       .  S
Zn582       O586   1.938       .  S
Zn582       O587   2.012       .  S
Zn582       O591   1.961       .  S
Zn582       O598   2.100       .  S
Zn583       O586   2.047       .  S
Zn583       O588   2.069       .  S
Zn583       O590   2.062       .  S
Zn583       O594   2.070       .  S
Zn584       O586   1.965       .  S
Zn584       O589   1.976       .  S
Zn584       O592   2.111       .  S
Zn585       O593   1.964       .  S
Zn585       O596   1.934       .  S
Zn585       O597   2.095       .  S
O587        C599   1.273       .  A
O588        C600   1.280       .  A
O589        C601   1.280       .  A
O590        C599   1.279       .  A
O591        C601   1.275       .  A
O592        C600   1.283       .  A
O593        C602   1.264       .  A
O594        C603   1.266       .  A
O595        C602   1.278       .  A
O597        C604   1.282       .  A
C600       C2077   1.516       .  S
C601        C687   1.432       .  S
C604       C1421   1.527   1_545  S
C605       C2161   1.525   1_455  S
C605        C606   1.427       .  A
C605        C610   1.428       .  A
C606        C607   1.409       .  A
C606       H2115   1.083       .  S
C607        C608   1.402       .  A
C608        C609   1.391       .  A
C608        H612   1.084       .  S
C609        C635   1.496       .  S
C609        C610   1.430       .  A
H611       C2110   1.083       .  S
Zn614       O618   1.990       .  S
Zn614       O619   2.123       .  S
Zn614       O623   2.141       .  S
Zn614       O630   2.148       .  S
Zn615       O618   1.993       .  S
Zn615       O622   1.961       .  S
Zn616       O618   2.006       .  S
Zn616       O621   1.994       .  S
Zn617       O618   1.988       .  S
Zn617       O629   1.998       .  S
O619        C631   1.288       .  A
O620        C632   1.280       .  A
O621        C633   1.268       .  A
O622        C631   1.262       .  A
O623        C633   1.294       .  A
O624        C632   1.281       .  A
O625        C634   1.283       .  A
O626        C635   1.274       .  A
O627        C634   1.286       .  A
O628        C635   1.286       .  A
O629        C636   1.267       .  A
O630        C636   1.290       .  A
C633        C664   1.507       .  S
C634        C673   1.518       .  S
C636        C682   1.514       .  S
Zn637       O641   1.965       .  S
Zn637       O642   2.115       .  S
Zn637       O653   1.966       .  S
Zn638       O641   2.038       .  S
Zn638       O643   2.069       .  S
Zn638       O645   2.104       .  S
Zn638       O649   2.071       .  S
Zn639       O644   2.041       .  S
Zn639       O647   1.936       .  S
Zn639       O650   2.003       .  S
Zn640       O641   1.961       .  S
Zn640       O648   2.161       .  S
Zn640       O651   2.006       .  S
Zn640       O652   1.986       .  S
O642        C654   1.282       .  A
O643        C655   1.270       .  A
O644        C656   1.274       .  A
O645        C654   1.283       .  A
O646        C656   1.278       .  A
O649        C658   1.281       .  A
O650        C657   1.266       .  A
O651        C658   1.273       .  A
O652        C659   1.281       .  A
O653        C659   1.274       .  A
C654        C660   1.528       .  S
C657       C2109   1.520       .  S
C659        C689   1.436       .  S
C660        C661   1.417       .  A
C660        C665   1.429       .  A
C661        C662   1.413       .  A
C661        H666   1.083       .  S
C662        C663   1.395       .  A
C663        C664   1.396       .  A
C663        H667   1.085       .  S
C664        C665   1.435       .  A
C665        H668   1.083       .  S
C669       C1356   1.541       .  S
C669        C670   1.425       .  A
C669        C674   1.437       .  A
C670        C671   1.418       .  A
C670       H1427   1.083       .  S
C671        C672   1.404       .  A
C672        C673   1.402       .  A
C672        H676   1.085       .  S
C673        C674   1.434       .  A
H675       C1422   1.084       .  S
C678       C1315   1.520       .  S
C678        C679   1.415       .  A
C678        C683   1.422       .  A
C679        C680   1.418       .  A
C679       H1436   1.084       .  S
C680        C681   1.412       .  A
C681        C682   1.406       .  A
C681        H685   1.083       .  S
C682        C683   1.430       .  A
C683        H686   1.083       .  S
H684       C1431   1.083       .  S
C687        N688   1.343       .  A
C687        N692   1.351       .  A
N688        C689   1.343       .  A
C689        N690   1.354       .  A
N690        C691   1.354       .  A
C691        N692   1.352       .  A
C693        C694   1.432       .  A
C693        C698   1.405       .  A
C693       Br700   1.933       .  S
C694        C695   1.423       .  A
C695        C696   1.408       .  A
C696        C697   1.403       .  A
C696       Br701   1.933       .  S
C697        C698   1.393       .  A
C698      Br2203   1.921       .  S
Br699      C2202   1.921       .  S
C703        C704   1.433       .  A
C703        C708   1.408       .  A
C703       Br710   1.936       .  S
C705       Br712   1.934   1_545  S
C706        C707   1.409   1_565  A
C706      Br1087   1.907       .  S
C707        C708   1.397       .  A
C708       Br709   1.924       .  S
Br711      C1082   1.903       .  S
C713       Br720   1.924   1_554  S
C714        C715   1.413       .  A
C715        C716   1.403       .  A
C715       Br722   1.934       .  S
C716        C717   1.402       .  A
C716       Br721   1.925       .  S
C717        C718   1.420   1_545  A
C718      Br1471   1.920   1_455  S
Br719      C1470   1.924   1_655  S
C723        C724   1.405       .  A
C723        C728   1.415       .  A
C723       Br730   1.904       .  S
C724        C725   1.394       .  A
C725        C726   1.415       .  A
C725      Br1484   1.911       .  S
C726        C727   1.439       .  A
C726       Br731   1.928       .  S
C727        C728   1.419       .  A
C728       Br729   1.920       .  S
Br732      C1477   1.913       .  S
C733        C734   1.385       .  A
C733        C738   1.399       .  A
C733      Br2244   1.918       .  S
C734        C735   1.408       .  A
C735        C736   1.412       .  A
C735       Br742   1.918       .  S
C736        C737   1.419       .  A
C736       Br741   1.921       .  S
C737        C738   1.430       .  A
C738       Br739   1.897       .  S
Br740      C2237   1.918       .  S
C743        C744   1.407       .  A
C743        C748   1.404       .  A
C743       Br750   1.907       .  S
C744        C745   1.389   1_655  A
C745        C746   1.398       .  A
C745      Br2256   1.926       .  S
C746        C747   1.424       .  A
C746       Br751   1.909       .  S
C747        C748   1.405   1_455  A
C748       Br749   1.925       .  S
Br752      C2249   1.925       .  S
C753       C1120   1.459       .  S
C753       N2262   1.341       .  A
N754        C755   1.352       .  A
C755       C1110   1.499       .  S
C755       N2260   1.375       .  A
N756       C2259   1.376       .  A
C757       C1100   1.476       .  S
C757        N758   1.355       .  A
N758       C2257   1.337       .  A
C759        C796   1.440       .  S
C759        N760   1.350       .  A
C759        N764   1.350       .  A
N760        C761   1.352       .  A
C761        C857   1.449       .  S
C761        N762   1.354       .  A
N762        C763   1.354       .  A
C763        C899   1.440       .  S
C763        N764   1.352       .  A
C765        C855   1.536       .  S
C765        C766   1.427       .  A
C765        C770   1.406       .  A
C766        C767   1.438       .  A
C766        H771   1.083       .  S
C767        C836   1.517       .  S
C767        C768   1.405       .  A
C768        C769   1.407       .  A
C768        H772   1.084       .  S
C769       C1032   1.495       .  S
C769        C770   1.411       .  A
C770        H773   1.058       .  S
Zn774       O778   1.949       .  S
Zn774       O779   2.126       .  S
Zn774       O783   2.041       .  S
Zn774       O790   2.008       .  S
Zn775       O778   1.979       .  S
Zn775       O780   1.947       .  S
Zn775       O782   2.100       .  S
Zn775       O786   2.072       .  S
Zn776       O778   1.991       .  S
Zn776       O781   2.035       .  S
Zn776       O784   1.959       .  S
Zn776       O787   2.077       .  S
Zn777       O778   1.922       .  S
Zn777       O785   2.075       .  S
Zn777       O788   1.985       .  S
Zn777       O789   1.980       .  S
O779        C791   1.283       .  A
O780        C792   1.271       .  A
O781        C793   1.275       .  A
O782        C791   1.279       .  A
O783        C793   1.279       .  A
O784        C792   1.272       .  A
O785        C794   1.276       .  A
O786        C795   1.278       .  A
O787        C794   1.278       .  A
O788        C795   1.273       .  A
O789        C796   1.275       .  A
O790        C796   1.278       .  A
C791       C2310   1.523   1_455  S
C792       C1123   1.455       .  S
C793       C1056   1.486       .  S
C795        C983   1.492       .  S
C797        C798   1.413       .  A
C797        C802   1.420       .  A
C798        C799   1.414       .  A
C799        C936   1.493       .  S
C799        C800   1.413       .  A
C800        C801   1.402       .  A
C800        H804   1.084       .  S
C801        C837   1.514       .  S
C801        C802   1.431       .  A
C802        H805   1.083       .  S
C806       C2295   1.517       .  S
C806        C807   1.422       .  A
C806        C811   1.426       .  A
C807        C808   1.415       .  A
C807        H812   1.083       .  S
C808       C1034   1.490       .  S
C808        C809   1.405       .  A
C809        C810   1.398       .  A
C809        H813   1.085       .  S
C810        C833   1.504       .  S
C810        C811   1.425       .  A
C811        H814   1.083       .  S
Zn815       O819   1.992       .  S
Zn815       O820   2.080       .  S
Zn815       O824   2.085       .  S
Zn815       O831   1.978       .  S
Zn816       O819   1.995       .  S
Zn816       O821   2.081       .  S
Zn816       O823   2.074       .  S
Zn816       O827   1.989       .  S
Zn817       O819   1.992       .  S
Zn817       O822   2.082       .  S
Zn817       O825   2.077       .  S
Zn817       O828   1.989       .  S
Zn818       O819   1.997       .  S
Zn818       O826   2.168       .  S
Zn818       O829   2.175       .  S
Zn818       O830   2.172       .  S
O820        C832   1.284       .  A
O821        C833   1.283       .  A
O822        C834   1.284       .  A
O823        C832   1.279       .  A
O824        C834   1.279       .  A
O825        C833   1.280       .  A
O826        C835   1.296       .  A
O827        C836   1.266       .  A
O828        C835   1.266       .  A
O829        C836   1.295       .  A
O830        C837   1.295       .  A
O831        C837   1.266       .  A
C832        C874   1.504       .  S
C834        C865   1.508       .  S
C835        C904   1.515       .  S
Zn838       O842   1.957       .  S
Zn838       O843   2.081       .  S
Zn838       O847   2.003       .  S
Zn838       O854   2.058       .  S
Zn839       O842   1.990       .  S
Zn839       O844   2.098       .  S
Zn839       O846   2.175       .  S
Zn839       O850   2.108       .  S
Zn840       O842   1.959       .  S
Zn840       O845   1.993       .  S
Zn840       O848   2.025       .  S
Zn840       O851   2.138       .  S
Zn841       O842   1.927       .  S
Zn841       O849   2.040       .  S
Zn841       O852   1.904       .  S
Zn841       O853   1.971       .  S
O843        C855   1.280       .  A
O844        C856   1.284       .  A
O845        C857   1.280       .  A
O846        C855   1.297       .  A
O847        C857   1.280       .  A
O848        C856   1.274       .  A
O849        C858   1.273       .  A
O850        C859   1.280       .  A
O851        C858   1.282       .  A
O852        C859   1.254       .  A
O853        C860   1.263       .  A
O854        C860   1.274       .  A
C856       C1047   1.491       .  S
C859       C1103   1.503       .  S
C860       C1038   1.466       .  S
C861        C862   1.416       .  A
C861        C866   1.435       .  A
C862        C863   1.400       .  A
C862        H867   1.084       .  S
C863        C975   1.471       .  S
C863        C864   1.397       .  A
C864        C865   1.397       .  A
C864        H868   1.085       .  S
C865        C866   1.435       .  A
C866        H869   1.083       .  S
C870        C898   1.518       .  S
C870        C871   1.424       .  A
C870        C875   1.427       .  A
C871        C872   1.419       .  A
C871        H876   1.082       .  S
C872        C938   1.505       .  S
C872        C873   1.411       .  A
C873        C874   1.393       .  A
C873        H877   1.084       .  S
C874        C875   1.423       .  A
C875        H878   1.083       .  S
Zn879       O883   1.997       .  S
Zn879       O884   1.974       .  S
Zn879       O888   2.094       .  S
Zn879       O895   2.089       .  S
Zn880       O883   1.987       .  S
Zn880       O885   2.055       .  S
Zn880       O887   2.020       .  S
Zn880       O891   2.142       .  S
Zn881       O883   1.950       .  S
Zn881       O886   2.110       .  S
Zn881       O889   2.016       .  S
Zn881       O892   1.985       .  S
Zn882       O883   1.921       .  S
Zn882       O890   1.992       .  S
Zn882       O893   2.092       .  S
Zn882       O894   1.993       .  S
O884        C896   1.277       .  A
O885        C897   1.278       .  A
O886        C898   1.280       .  A
O887        C896   1.281       .  A
O888        C898   1.277       .  A
O889        C897   1.276       .  A
O890        C899   1.275       .  A
O891        C900   1.286       .  A
O892        C899   1.274       .  A
O893        C900   1.279       .  A
O894        C901   1.275       .  A
O895        C901   1.281       .  A
C896       C1113   1.486       .  S
C897        C951   1.487       .  S
C900       C2406   1.528   1_455  S
C901        C942   1.496       .  S
C902       C2404   1.526       .  S
C902        C903   1.428       .  A
C902        C907   1.412       .  A
C903        C904   1.438       .  A
C903        H908   1.083       .  S
C904        C905   1.401       .  A
C905        C906   1.402       .  A
C905        H909   1.084       .  S
C906        C978   1.476       .  S
C906        C907   1.413       .  A
C907       H2414   1.083       .  S
H910       C2411   1.082       .  S
C911       C1083   1.459       .  S
C911       N2416   1.358       .  A
N912       C2415   1.356       .  A
N912        C913   1.333       .  A
C913       C1093   1.464   1_655  S
N914       C2419   1.364   1_565  A
C915       C1073   1.475       .  S
C915       N2418   1.365       .  A
C915        N916   1.357       .  A
Zn917       O921   1.964       .  S
Zn917      O1298   1.963       .  S
Zn917      O1302   2.053       .  S
Zn917       O933   2.092       .  S
Zn918       O921   1.992       .  S
Zn918       O923   2.093       .  S
Zn918       O925   2.040       .  S
Zn918       O929   2.117       .  S
Zn919      O1297   1.962       .  S
Zn919       O924   2.009   1_556  S
Zn919       O927   2.080   1_556  S
Zn919      O1306   1.998       .  S
Zn920       O921   1.923       .  S
Zn920       O928   2.007       .  S
Zn920       O931   1.989       .  S
Zn920       O932   2.069       .  S
O921      Zn1295   1.951       .  S
O922      Zn1293   1.980       .  S
O922       C1310   1.276       .  A
O923       C1311   1.278       .  A
O924        C936   1.273       .  A
O925        C934   1.283       .  A
O926      Zn1293   2.073   1_554  S
O926        C936   1.279       .  A
O927        C935   1.276   1_554  A
O928        C937   1.275       .  A
O929        C938   1.285       .  A
O930      Zn1295   2.000       .  S
O930        C937   1.275       .  A
O931        C938   1.275       .  A
O932        C939   1.276       .  A
O933        C939   1.279       .  A
C934       C1466   1.460       .  S
C934       O1298   1.273       .  A
C935        C940   1.515   1_556  S
C935       O1299   1.279       .  A
C937       C1067   1.450       .  S
C940        C941   1.422       .  A
C940        C945   1.425   1_554  A
C941        C942   1.414       .  A
C941        H946   1.080       .  S
C942        C943   1.406       .  A
C943        C944   1.391       .  A
C943        H947   1.084       .  S
C944       C1008   1.496       .  S
C944        C945   1.423   1_554  A
C945       H1324   1.083       .  S
H948       C1321   1.083       .  S
C949       C2480   1.517   1_455  S
C949        C950   1.414       .  A
C949        C954   1.419       .  A
C950        C951   1.415       .  A
C950       H2459   1.084       .  S
C951        C952   1.406       .  A
C952        C953   1.397       .  A
C952        H956   1.084       .  S
C953       C1007   1.502       .  S
C953        C954   1.429       .  A
C954        H957   1.083       .  S
H955       C2454   1.084       .  S
Zn958       O962   1.940       .  S
Zn958       O963   2.010       .  S
Zn958       O967   1.978       .  S
Zn958       O974   2.114       .  S
Zn959       O962   2.051       .  S
Zn959       O964   2.077       .  S
Zn959       O966   2.049       .  S
Zn959       O970   2.063       .  S
Zn960       O962   1.969       .  S
Zn960       O965   1.989       .  S
Zn960       O968   2.129       .  S
Zn960      O1347   2.093       .  S
Zn961      O1338   1.892       .  S
Zn961       O969   1.962   1_556  S
Zn961       O972   1.972       .  S
Zn961       O973   2.125   1_556  S
O962      Zn1337   1.898       .  S
O963        C975   1.275       .  A
O964        C976   1.280       .  A
O965        C977   1.282       .  A
O966        C975   1.279       .  A
O967        C977   1.276       .  A
O968        C976   1.285       .  A
O969        C978   1.263       .  A
O970        C979   1.269       .  A
O971      Zn1336   2.095   1_554  S
O971        C978   1.278       .  A
O972       C1355   1.246       .  A
O973        C980   1.284   1_554  A
O974       C1356   1.280       .  A
C976       C2453   1.522       .  S
C977       C1063   1.440       .  S
C979       C1456   1.456       .  S
C979       O1348   1.245       .  A
C980       O1350   1.281       .  A
C981       C2537   1.526   1_454  S
C981        C982   1.424       .  A
C981        C986   1.433   1_554  A
C982        C983   1.412       .  A
C982       H2491   1.083       .  S
C983        C984   1.401       .  A
C984        C985   1.389       .  A
C984        H988   1.085       .  S
C985       C1011   1.501   1_554  S
C985        C986   1.431   1_554  A
C986       H1365   1.083       .  S
H987       C2486   1.083       .  S
H989       C1362   1.083       .  S
Zn990       O994   1.985       .  S
Zn990       O995   2.138       .  S
Zn990       O999   2.131       .  S
Zn990      O1006   2.133       .  S
Zn991       O994   1.981       .  S
Zn991      O1372   2.047       .  S
Zn991       O998   1.957       .  S
Zn991      O1378   2.031       .  S
Zn992       O994   1.990       .  S
Zn992       O997   1.985       .  S
Zn992      O1376   2.083       .  S
Zn992      O1379   2.091       .  S
Zn993       O994   1.981       .  S
Zn993      O1377   2.082       .  S
Zn993      O1380   2.072       .  S
Zn993      O1005   1.970       .  S
O995       C1007   1.290       .  A
O996      Zn1367   2.067       .  S
O996       C1008   1.283   1_556  A
O997       C1009   1.267       .  A
O998       C1007   1.262       .  A
O999       C1009   1.292       .  A
O1000     Zn1368   2.066       .  S
O1000      C1008   1.279   1_556  A
O1001     Zn1369   2.105       .  S
O1001      C1010   1.282   1_556  A
O1002     Zn1367   2.064       .  S
O1002      C1011   1.277       .  A
O1003     Zn1368   2.114   1_554  S
O1003      C1010   1.287       .  A
O1004     Zn1369   2.079       .  S
O1004      C1011   1.285       .  A
O1005      C1012   1.264       .  A
O1006      C1012   1.290       .  A
C1009      C1040   1.503       .  S
C1010      C1049   1.522       .  S
C1012      C1058   1.502       .  S
Zn1013     O1017   1.938       .  S
Zn1013     O1018   2.081       .  S
Zn1013     O1398   2.032       .  S
Zn1013     O1029   1.963       .  S
Zn1014     O1017   2.012       .  S
Zn1014     O1019   2.081       .  S
Zn1014     O1021   2.103       .  S
Zn1014     O1025   2.116       .  S
Zn1015     O1393   1.937       .  S
Zn1015     O1020   2.070   1_556  S
Zn1015     O1023   1.962       .  S
Zn1015     O1026   1.984   1_556  S
Zn1016     O1017   1.940       .  S
Zn1016     O1024   2.157       .  S
Zn1016     O1027   2.004       .  S
Zn1016     O1028   2.001       .  S
O1017     Zn1391   1.934       .  S
O1018      C1030   1.279       .  A
O1019      C1031   1.276       .  A
O1020      C1032   1.276       .  A
O1021      C1030   1.284       .  A
O1022     Zn1389   2.064   1_554  S
O1022      C1032   1.279       .  A
O1023      C1407   1.248       .  A
O1024      C1409   1.280       .  A
O1025      C1034   1.287       .  A
O1026      C1033   1.264   1_554  A
O1027      C1034   1.274       .  A
O1028      C1035   1.283       .  A
O1029      C1035   1.274       .  A
C1030      C1036   1.517       .  S
C1031      C1446   1.459       .  S
C1031      O1399   1.247       .  A
C1033      C2485   1.522   1_556  S
C1033      O1400   1.281       .  A
C1035      C1065   1.439       .  S
C1036      C1037   1.412       .  A
C1036      C1041   1.425       .  A
C1037      C1038   1.410       .  A
C1037      H1042   1.084       .  S
C1038      C1039   1.396       .  A
C1039      C1040   1.396       .  A
C1039      H1043   1.085       .  S
C1040      C1041   1.431       .  A
C1041      H1044   1.083       .  S
C1045      C1046   1.419       .  A
C1045      C1050   1.437       .  A
C1046      C1047   1.412       .  A
C1047      C1048   1.408       .  A
C1048      C1049   1.406       .  A
C1048      H1052   1.084       .  S
C1049      C1050   1.436       .  A
C1050      H1429   1.083   1_554  S
H1053      C1426   1.083       .  S
C1054      C1055   1.413       .  A
C1054      C1059   1.418       .  A
C1055      C1056   1.417       .  A
C1056      C1057   1.405       .  A
C1057      C1058   1.399       .  A
C1057      H1061   1.084       .  S
C1058      C1059   1.428       .  A
C1059      H1062   1.083       .  S
C1063      N1064   1.343       .  A
C1063      N1068   1.356       .  A
N1064      C1065   1.341       .  A
C1065      N1066   1.354       .  A
N1066      C1067   1.355       .  A
C1067      N1068   1.358       .  A
C1069      C1070   1.427       .  A
C1069      C1074   1.403       .  A
C1069     Br1076   1.936       .  S
C1070      C1407   1.473   1_554  S
C1070      C1071   1.420       .  A
C1071      C1072   1.406       .  A
C1071     Br1454   1.924   1_554  S
C1072      C1073   1.407       .  A
C1072     Br1077   1.934       .  S
C1073      C1074   1.397       .  A
C1074     Br2579   1.921       .  S
Br1075     C2578   1.918       .  S
Br1078     C1447   1.929       .  S
C1079      C1080   1.424   1_554  A
C1079      C1084   1.397       .  A
C1079     Br1086   1.939       .  S
C1080      C1355   1.464       .  S
C1080      C1457   1.413       .  A
C1081      C1456   1.406       .  A
C1081      C1458   1.399       .  A
C1081     Br1088   1.932       .  S
C1082      C1457   1.402   1_554  A
C1082      C1083   1.409       .  A
C1083      C1084   1.394       .  A
C1084     Br1085   1.911       .  S
C1089      C1466   1.398       .  A
C1089      C1470   1.401       .  A
C1089     Br1096   1.931       .  S
C1090      C1310   1.455       .  S
C1090      C1465   1.396       .  A
C1090      C1091   1.412   1_556  A
C1091      C1092   1.400       .  A
C1091     Br1098   1.927       .  S
C1092      C1093   1.401       .  A
C1092     Br1097   1.927       .  S
C1093      C1094   1.417       .  A
C1094      C1465   1.400   1_554  A
C1099      C1100   1.404       .  A
C1099      C1104   1.416       .  A
C1099     Br1106   1.913       .  S
C1100      C1101   1.393       .  A
C1101      C1102   1.413   1_545  A
C1102      C1103   1.443       .  A
C1102     Br1107   1.930       .  S
C1103      C1104   1.424   1_565  A
C1104     Br1105   1.920       .  S
C1109      C1110   1.390       .  A
C1109      C1114   1.406       .  A
C1109     Br2620   1.917       .  S
C1110      C1111   1.414       .  A
C1111      C1112   1.417       .  A
C1111     Br1118   1.917       .  S
C1112      C1113   1.418       .  A
C1112     Br1117   1.921       .  S
C1113      C1114   1.428       .  A
C1114     Br1115   1.895       .  S
Br1116     C2613   1.920       .  S
C1119      C1120   1.423       .  A
C1119      C1124   1.393   1_655  A
C1119     Br1126   1.913       .  S
C1120      C1121   1.400   1_655  A
C1121      C1122   1.398       .  A
C1121     Br2632   1.934       .  S
C1122      C1123   1.416       .  A
C1122     Br1127   1.923       .  S
C1123      C1124   1.393       .  A
C1124     Br1125   1.942       .  S
Br1128     C2625   1.925       .  S
C1129      C1496   1.447       .  S
C1129      N2638   1.336       .  A
N1130      C1131   1.356       .  A
C1131      C1486   1.475       .  S
C1131      N2636   1.362       .  A
N1132      C2635   1.373       .  A
C1133      C1476   1.478       .  S
C1133      N1134   1.359       .  A
N1134      C2633   1.342       .  A
C1135      C1172   1.436       .  S
C1135      N1136   1.348       .  A
C1135      N1140   1.351       .  A
N1136      C1137   1.349       .  A
C1137      C1233   1.441       .  S
C1137      N1138   1.353       .  A
N1138      C1139   1.351       .  A
C1139      C1275   1.441       .  S
C1139      N1140   1.353       .  A
C1141      C1231   1.529       .  S
C1141      C1142   1.429       .  A
C1141      C1146   1.414       .  A
C1142      C1143   1.436       .  A
C1142      H1147   1.083       .  S
C1143      C1212   1.516       .  S
C1143      C1144   1.400       .  A
C1144      C1145   1.403       .  A
C1144      H1148   1.084       .  S
C1145      C1408   1.481       .  S
C1145      C1146   1.411       .  A
C1146      H1149   1.080       .  S
Zn1150     O1154   1.938       .  S
Zn1150     O1155   2.091       .  S
Zn1150     O1159   2.015       .  S
Zn1150     O1166   1.992       .  S
Zn1151     O1154   1.977       .  S
Zn1151     O1156   1.939       .  S
Zn1151     O1158   2.079       .  S
Zn1151     O1162   2.042       .  S
Zn1152     O1154   1.952       .  S
Zn1152     O1157   2.073       .  S
Zn1152     O1160   1.977       .  S
Zn1152     O1163   2.098       .  S
Zn1153     O1154   1.915       .  S
Zn1153     O1161   2.080       .  S
Zn1153     O1164   1.999       .  S
Zn1153     O1165   1.982       .  S
O1155      C1167   1.278       .  A
O1156      C1168   1.270       .  A
O1157      C1169   1.278       .  A
O1158      C1167   1.276       .  A
O1159      C1169   1.274       .  A
O1160      C1168   1.278       .  A
O1161      C1170   1.278       .  A
O1162      C1171   1.273       .  A
O1163      C1170   1.281       .  A
O1164      C1171   1.274       .  A
O1165      C1172   1.276       .  A
O1166      C1172   1.276       .  A
C1167      C2686   1.511   1_455  S
C1168      C1499   1.438       .  S
C1169      C1432   1.496       .  S
C1171      C1359   1.486       .  S
C1173      C1174   1.410       .  A
C1173      C1178   1.417       .  A
C1174      C1175   1.412       .  A
C1175      C1312   1.485       .  S
C1175      C1176   1.410       .  A
C1176      C1177   1.399       .  A
C1176      H1180   1.084       .  S
C1177      C1213   1.506       .  S
C1177      C1178   1.429       .  A
C1178      H1181   1.083       .  S
C1182      C2671   1.506       .  S
C1182      C1183   1.417       .  A
C1182      C1187   1.421       .  A
C1183      C1184   1.411       .  A
C1183      H1188   1.083       .  S
C1184      C1410   1.479       .  S
C1184      C1185   1.402       .  A
C1185      C1186   1.395       .  A
C1185      H1189   1.085       .  S
C1186      C1209   1.493       .  S
C1186      C1187   1.420       .  A
C1187      H1190   1.083       .  S
Zn1191     O1195   1.986       .  S
Zn1191     O1196   2.076       .  S
Zn1191     O1200   2.079       .  S
Zn1191     O1207   1.961       .  S
Zn1192     O1195   1.994       .  S
Zn1192     O1197   2.062       .  S
Zn1192     O1199   2.069       .  S
Zn1192     O1203   1.993       .  S
Zn1193     O1195   1.986       .  S
Zn1193     O1198   2.080       .  S
Zn1193     O1201   2.056       .  S
Zn1193     O1204   1.993       .  S
Zn1194     O1195   1.992       .  S
Zn1194     O1202   2.166       .  S
Zn1194     O1205   2.170       .  S
Zn1194     O1206   2.160       .  S
O1196      C1208   1.283       .  A
O1197      C1209   1.282       .  A
O1198      C1210   1.283       .  A
O1199      C1208   1.277       .  A
O1200      C1210   1.278       .  A
O1201      C1209   1.278       .  A
O1202      C1211   1.295       .  A
O1203      C1212   1.266       .  A
O1204      C1211   1.267       .  A
O1205      C1212   1.295       .  A
O1206      C1213   1.294       .  A
O1207      C1213   1.265       .  A
C1208      C1250   1.502       .  S
C1210      C1241   1.505       .  S
C1211      C1280   1.516       .  S
Zn1214     O1218   1.961       .  S
Zn1214     O1219   2.074       .  S
Zn1214     O1223   1.975       .  S
Zn1214     O1230   2.057       .  S
Zn1215     O1218   1.989       .  S
Zn1215     O1220   2.055       .  S
Zn1215     O1222   2.146       .  S
Zn1215     O1226   2.074       .  S
Zn1216     O1218   1.959       .  S
Zn1216     O1221   1.995       .  S
Zn1216     O1224   2.024       .  S
Zn1216     O1227   2.133       .  S
Zn1217     O1218   1.932       .  S
Zn1217     O1225   2.055       .  S
Zn1217     O1228   1.900       .  S
Zn1217     O1229   1.982       .  S
O1219      C1231   1.277       .  A
O1220      C1232   1.277       .  A
O1221      C1233   1.281       .  A
O1222      C1231   1.290       .  A
O1223      C1233   1.277       .  A
O1224      C1232   1.274       .  A
O1225      C1234   1.276       .  A
O1226      C1235   1.276       .  A
O1227      C1234   1.281       .  A
O1228      C1235   1.255       .  A
O1229      C1236   1.266       .  A
O1230      C1236   1.274       .  A
C1232      C1423   1.479       .  S
C1235      C1479   1.489       .  S
C1236      C1414   1.470       .  S
C1237      C1238   1.413       .  A
C1237      C1242   1.433       .  A
C1238      C1239   1.398       .  A
C1238      H1243   1.083       .  S
C1239      C1351   1.469       .  S
C1239      C1240   1.398       .  A
C1240      C1241   1.399       .  A
C1240      H1244   1.085       .  S
C1241      C1242   1.433       .  A
C1242      H1245   1.083       .  S
C1246      C1274   1.516       .  S
C1246      C1247   1.424       .  A
C1246      C1251   1.426       .  A
C1247      C1248   1.418       .  A
C1247      H1252   1.083       .  S
C1248      C1314   1.504       .  S
C1248      C1249   1.410       .  A
C1249      C1250   1.393       .  A
C1249      H1253   1.084       .  S
C1250      C1251   1.423       .  A
C1251      H1254   1.083       .  S
Zn1255     O1259   1.990       .  S
Zn1255     O1260   2.011       .  S
Zn1255     O1264   2.092       .  S
Zn1255     O1271   2.098       .  S
Zn1256     O1259   1.959       .  S
Zn1256     O1261   2.056       .  S
Zn1256     O1263   2.020       .  S
Zn1256     O1267   2.144       .  S
Zn1257     O1259   1.947       .  S
Zn1257     O1262   2.096       .  S
Zn1257     O1265   2.007       .  S
Zn1257     O1268   1.994       .  S
Zn1258     O1259   1.906       .  S
Zn1258     O1266   1.980       .  S
Zn1258     O1269   2.063       .  S
Zn1258     O1270   1.989       .  S
O1260      C1272   1.281       .  A
O1261      C1273   1.277       .  A
O1262      C1274   1.278       .  A
O1263      C1272   1.282       .  A
O1264      C1274   1.277       .  A
O1265      C1273   1.274       .  A
O1266      C1275   1.273       .  A
O1267      C1276   1.287       .  A
O1268      C1275   1.275       .  A
O1269      C1276   1.277       .  A
O1270      C1277   1.275       .  A
O1271      C1277   1.284       .  A
C1272      C1489   1.492       .  S
C1273      C1327   1.488       .  S
C1276      C2782   1.521   1_455  S
C1277      C1318   1.497       .  S
C1278      C2780   1.522       .  S
C1278      C1279   1.426       .  A
C1278      C1283   1.409       .  A
C1279      C1280   1.438       .  A
C1279      H1284   1.083       .  S
C1280      C1281   1.403       .  A
C1281      C1282   1.404       .  A
C1281      H1285   1.084       .  S
C1282      C1354   1.475       .  S
C1282      C1283   1.412       .  A
C1283      H2790   1.084       .  S
H1286      C2787   1.084       .  S
C1287      C1459   1.459       .  S
C1287      N2792   1.353       .  A
N1288      C2791   1.358       .  A
N1288      C1289   1.335       .  A
C1289      C1469   1.464   1_655  S
N1290      C2795   1.367       .  A
C1291      C1449   1.483       .  S
C1291      N2794   1.355       .  A
C1291      N1292   1.370       .  A
Zn1293     O1297   1.979       .  S
Zn1293     O1309   2.118       .  S
Zn1294     O1297   2.000       .  S
Zn1294     O1299   2.109       .  S
Zn1294     O1301   2.022       .  S
Zn1294     O1305   2.107       .  S
Zn1295     O1300   2.000       .  S
Zn1295     O1303   2.063       .  S
Zn1296     O1297   1.934       .  S
Zn1296     O1304   2.004       .  S
Zn1296     O1307   1.999       .  S
Zn1296     O1308   2.089       .  S
O1300      C1312   1.272       .  A
O1301      C1310   1.281       .  A
O1302      C1312   1.276       .  A
O1303      C1311   1.275       .  A
O1304      C1313   1.276       .  A
O1305      C1314   1.283       .  A
O1306      C1313   1.275       .  A
O1307      C1314   1.275       .  A
O1308      C1315   1.278       .  A
O1309      C1315   1.282       .  A
C1311      C1316   1.505       .  S
C1313      C1443   1.448       .  S
C1316      C1317   1.419       .  A
C1316      C1321   1.423       .  A
C1317      C1318   1.412       .  A
C1317      H1322   1.083       .  S
C1318      C1319   1.410       .  A
C1319      C1320   1.395       .  A
C1319      H1323   1.084       .  S
C1320      C1384   1.497       .  S
C1320      C1321   1.420       .  A
C1325      C2856   1.509   1_455  S
C1325      C1326   1.413       .  A
C1325      C1330   1.418       .  A
C1326      C1327   1.411       .  A
C1326      H2835   1.084       .  S
C1327      C1328   1.407       .  A
C1328      C1329   1.400       .  A
C1328      H1332   1.084       .  S
C1329      C1383   1.503       .  S
C1329      C1330   1.425       .  A
C1330      H1333   1.083       .  S
H1331      C2830   1.083       .  S
Zn1334     O1338   1.942       .  S
Zn1334     O1339   2.010       .  S
Zn1334     O1343   1.984       .  S
Zn1334     O1350   2.129       .  S
Zn1335     O1338   2.034       .  S
Zn1335     O1340   2.066       .  S
Zn1335     O1342   2.042       .  S
Zn1335     O1346   2.060       .  S
Zn1336     O1338   1.965       .  S
Zn1336     O1341   1.996       .  S
Zn1336     O1344   2.124       .  S
Zn1337     O1345   1.955       .  S
Zn1337     O1348   1.983       .  S
Zn1337     O1349   2.147       .  S
O1339      C1351   1.274       .  A
O1340      C1352   1.279       .  A
O1341      C1353   1.282       .  A
O1342      C1351   1.278       .  A
O1343      C1353   1.277       .  A
O1344      C1352   1.285       .  A
O1345      C1354   1.261       .  A
O1346      C1355   1.266       .  A
O1347      C1354   1.278       .  A
O1349      C1356   1.286       .  A
C1352      C2829   1.519       .  S
C1353      C1439   1.443       .  S
C1357      C2913   1.529   1_455  S
C1357      C1358   1.426       .  A
C1357      C1362   1.431       .  A
C1358      C1359   1.409       .  A
C1358      H2867   1.083       .  S
C1359      C1360   1.393       .  A
C1360      C1361   1.385       .  A
C1360      H1364   1.085       .  S
C1361      C1387   1.491       .  S
C1361      C1362   1.432       .  A
H1363      C2862   1.083       .  S
Zn1366     O1370   1.994       .  S
Zn1366     O1371   2.121       .  S
Zn1366     O1375   2.115       .  S
Zn1366     O1382   2.117       .  S
Zn1367     O1370   1.991       .  S
Zn1367     O1374   1.985       .  S
Zn1368     O1370   1.995       .  S
Zn1368     O1373   1.981       .  S
Zn1369     O1370   1.978       .  S
Zn1369     O1381   1.977       .  S
O1371      C1383   1.287       .  A
O1372      C1384   1.279       .  A
O1373      C1385   1.266       .  A
O1374      C1383   1.265       .  A
O1375      C1385   1.290       .  A
O1376      C1384   1.281       .  A
O1377      C1386   1.280       .  A
O1378      C1387   1.272       .  A
O1379      C1386   1.285       .  A
O1380      C1387   1.284       .  A
O1381      C1388   1.268       .  A
O1382      C1388   1.287       .  A
C1385      C1416   1.498       .  S
C1386      C1425   1.507       .  S
C1388      C1434   1.500       .  S
Zn1389     O1393   1.958       .  S
Zn1389     O1394   2.121       .  S
Zn1389     O1405   1.976       .  S
Zn1390     O1393   2.041       .  S
Zn1390     O1395   2.070       .  S
Zn1390     O1397   2.087       .  S
Zn1390     O1401   2.077       .  S
Zn1391     O1396   2.063       .  S
Zn1391     O1399   1.938       .  S
Zn1391     O1402   2.011       .  S
Zn1392     O1393   1.952       .  S
Zn1392     O1400   2.163       .  S
Zn1392     O1403   2.007       .  S
Zn1392     O1404   2.003       .  S
O1394      C1406   1.284       .  A
O1395      C1407   1.269       .  A
O1396      C1408   1.280       .  A
O1397      C1406   1.281       .  A
O1398      C1408   1.274       .  A
O1401      C1410   1.282       .  A
O1402      C1409   1.268       .  A
O1403      C1410   1.275       .  A
O1404      C1411   1.282       .  A
O1405      C1411   1.274       .  A
C1406      C1412   1.523       .  S
C1409      C2861   1.523       .  S
C1411      C1441   1.444       .  S
C1412      C1413   1.417       .  A
C1412      C1417   1.423       .  A
C1413      C1414   1.412       .  A
C1413      H1418   1.083       .  S
C1414      C1415   1.394       .  A
C1415      C1416   1.395       .  A
C1415      H1419   1.085       .  S
C1416      C1417   1.430       .  A
C1417      H1420   1.083       .  S
C1421      C1422   1.419       .  A
C1421      C1426   1.434       .  A
C1422      C1423   1.410       .  A
C1423      C1424   1.398       .  A
C1424      C1425   1.396       .  A
C1424      H1428   1.085       .  S
C1425      C1426   1.433       .  A
C1430      C1431   1.414       .  A
C1430      C1435   1.411       .  A
C1431      C1432   1.417       .  A
C1432      C1433   1.414       .  A
C1433      C1434   1.401       .  A
C1433      H1437   1.083       .  S
C1434      C1435   1.418       .  A
C1435      H1438   1.083       .  S
C1439      N1440   1.346       .  A
C1439      N1444   1.354       .  A
N1440      C1441   1.345       .  A
C1441      N1442   1.356       .  A
N1442      C1443   1.356       .  A
C1443      N1444   1.355       .  A
C1445      C1446   1.415       .  A
C1445      C1450   1.401       .  A
C1445     Br1452   1.933       .  S
C1446      C1447   1.412       .  A
C1447      C1448   1.406       .  A
C1448      C1449   1.393       .  A
C1448     Br1453   1.899       .  S
C1449      C1450   1.406       .  A
C1450     Br2955   1.917       .  S
Br1451     C2954   1.919       .  S
C1455      C1456   1.420       .  A
C1455      C1460   1.398       .  A
C1455     Br1462   1.938       .  S
C1457     Br1464   1.932       .  S
C1458      C1459   1.416       .  A
C1459      C1460   1.401       .  A
C1460     Br1461   1.923       .  S
C1465     Br1472   1.925       .  S
C1466      C1467   1.416       .  A
C1467      C1468   1.403       .  A
C1467     Br1474   1.932       .  S
C1468      C1469   1.399       .  A
C1468     Br1473   1.927       .  S
C1469      C1470   1.418       .  A
C1475      C1476   1.405       .  A
C1475      C1480   1.412       .  A
C1475     Br1482   1.910       .  S
C1476      C1477   1.395       .  A
C1477      C1478   1.409   1_545  A
C1478      C1479   1.434       .  A
C1478     Br1483   1.930       .  S
C1479      C1480   1.418   1_565  A
C1480     Br1481   1.922       .  S
C1485      C1486   1.391       .  A
C1485      C1490   1.403       .  A
C1485     Br2996   1.926       .  S
C1486      C1487   1.401       .  A
C1487      C1488   1.408       .  A
C1487     Br1494   1.914       .  S
C1488      C1489   1.416       .  A
C1488     Br1493   1.923       .  S
C1489      C1490   1.428       .  A
C1490     Br1491   1.912       .  S
Br1492     C2989   1.917       .  S
C1495      C1496   1.418       .  A
C1495      C1500   1.394   1_655  A
C1495     Br1502   1.921       .  S
C1496      C1497   1.397       .  A
C1497      C1498   1.392   1_655  A
C1497     Br3008   1.929       .  S
C1498      C1499   1.409       .  A
C1498     Br1503   1.927       .  S
C1499      C1500   1.395       .  A
C1500     Br1501   1.932       .  S
Br1504     C3001   1.926       .  S
C1505      C1872   1.426       .  S
C1505      N2258   1.346       .  A
N1506      C2257   1.345       .  A
N1506      C1507   1.353       .  A
C1507      C1862   1.495       .  S
N1508      C2261   1.359       .  A
C1509      C1852   1.475       .  S
C1509      N2260   1.365   1_655  A
C1509      N1510   1.351       .  A
C1511      C1548   1.444       .  S
C1511      N1512   1.352       .  A
C1511      N1516   1.352       .  A
N1512      C1513   1.353       .  A
C1513      C1609   1.446       .  S
C1513      N1514   1.352       .  A
N1514      C1515   1.351       .  A
C1515      C1651   1.439       .  S
C1515      N1516   1.353       .  A
C1517      C1607   1.545       .  S
C1517      C1518   1.433       .  A
C1517      C1522   1.409       .  A
C1518      C1519   1.444       .  A
C1518      H1523   1.083       .  S
C1519      C1588   1.520       .  S
C1519      C1520   1.403       .  A
C1520      C1521   1.402       .  A
C1520      H1524   1.084       .  S
C1521      C1784   1.490       .  S
C1521      C1522   1.411       .  A
C1522      H1525   1.051       .  S
Zn1526     O1530   1.927       .  S
Zn1526     O1531   2.095       .  S
Zn1526     O1535   1.972       .  S
Zn1526     O1542   1.998       .  S
Zn1527     O1530   1.975       .  S
Zn1527     O1532   1.902       .  S
Zn1527     O1534   2.052       .  S
Zn1527     O1538   1.984       .  S
Zn1528     O1530   1.947       .  S
Zn1528     O1533   2.115       .  S
Zn1528     O1536   2.033       .  S
Zn1528     O1539   2.134       .  S
Zn1529     O1530   1.929       .  S
Zn1529     O1537   2.102       .  S
Zn1529     O1540   2.024       .  S
Zn1529     O1541   2.003       .  S
O1531      C1543   1.276       .  A
O1532      C1544   1.262       .  A
O1533      C1545   1.285       .  A
O1534      C1543   1.271       .  A
O1535      C1545   1.270       .  A
O1536      C1544   1.288       .  A
O1537      C1546   1.281       .  A
O1538      C1547   1.266       .  A
O1539      C1546   1.284       .  A
O1540      C1547   1.278       .  A
O1541      C1548   1.278       .  A
O1542      C1548   1.278       .  A
C1544      C1875   1.434       .  S
C1545      C1808   1.498       .  S
C1546      C2301   1.527       .  S
C1547      C1735   1.474       .  S
C1549      C2298   1.514   1_545  S
C1549      C1550   1.413       .  A
C1549      C1554   1.419       .  A
C1550      C1551   1.414       .  A
C1550      H2307   1.084       .  S
C1551      C1688   1.487       .  S
C1551      C1552   1.407       .  A
C1552      C1553   1.397       .  A
C1552      H1556   1.084       .  S
C1553      C1589   1.504       .  S
C1553      C1554   1.430       .  A
C1554      H1557   1.083       .  S
H1555      C2302   1.083       .  S
C1558      C1559   1.416       .  A
C1558      C1563   1.415       .  A
C1559      C1560   1.409       .  A
C1559      H1564   1.083   1_655  S
C1560      C1786   1.477       .  S
C1560      C1561   1.402       .  A
C1561      C1562   1.397       .  A
C1561      H1565   1.085       .  S
C1562      C1585   1.483       .  S
C1562      C1563   1.415       .  A
C1563      H1566   1.084       .  S
Zn1567     O1571   1.983       .  S
Zn1567     O1572   2.056       .  S
Zn1567     O1576   2.069       .  S
Zn1567     O1583   1.958       .  S
Zn1568     O1571   1.984       .  S
Zn1568     O1573   2.039       .  S
Zn1568     O1575   2.021       .  S
Zn1568     O1579   1.989       .  S
Zn1569     O1571   1.973       .  S
Zn1569     O1574   2.062       .  S
Zn1569     O1577   2.043       .  S
Zn1569     O1580   1.981       .  S
Zn1570     O1571   1.985       .  S
Zn1570     O1578   2.167       .  S
Zn1570     O1581   2.185       .  S
Zn1570     O1582   2.152       .  S
O1572      C1584   1.281       .  A
O1573      C1585   1.278       .  A
O1574      C1586   1.280       .  A
O1575      C1584   1.271       .  A
O1576      C1586   1.276       .  A
O1577      C1585   1.277       .  A
O1578      C1587   1.295       .  A
O1579      C1588   1.265       .  A
O1580      C1587   1.267       .  A
O1581      C1588   1.297       .  A
O1582      C1589   1.294       .  A
O1583      C1589   1.264       .  A
C1584      C1626   1.483       .  S
C1586      C1617   1.498       .  S
C1587      C1656   1.513       .  S
Zn1590     O1594   1.965       .  S
Zn1590     O1595   2.099       .  S
Zn1590     O1599   2.005       .  S
Zn1590     O1606   2.067       .  S
Zn1591     O1594   1.989       .  S
Zn1591     O1596   2.121       .  S
Zn1591     O1598   2.192       .  S
Zn1591     O1602   2.099       .  S
Zn1592     O1594   1.964       .  S
Zn1592     O1597   1.991       .  S
Zn1592     O1600   2.017       .  S
Zn1592     O1603   2.137       .  S
Zn1593     O1594   1.935       .  S
Zn1593     O1601   2.059       .  S
Zn1593     O1604   1.918       .  S
Zn1593     O1605   1.983       .  S
O1595      C1607   1.281       .  A
O1596      C1608   1.287       .  A
O1597      C1609   1.280       .  A
O1598      C1607   1.297       .  A
O1599      C1609   1.282       .  A
O1600      C1608   1.274       .  A
O1601      C1610   1.275       .  A
O1602      C1611   1.283       .  A
O1603      C1610   1.280       .  A
O1604      C1611   1.255       .  A
O1605      C1612   1.266       .  A
O1606      C1612   1.274       .  A
C1608      C1799   1.494       .  S
C1610      C2365   1.527       .  S
C1611      C1855   1.499       .  S
C1612      C1790   1.473       .  S
C1613      C2362   1.520   1_545  S
C1613      C1614   1.420       .  A
C1613      C1618   1.430       .  A
C1614      C1615   1.406       .  A
C1614      H1619   1.084       .  S
C1615      C1727   1.476       .  S
C1615      C1616   1.398       .  A
C1616      C1617   1.395       .  A
C1616      H1620   1.085       .  S
C1617      C1618   1.428       .  A
C1618      H1621   1.083       .  S
C1622      C1650   1.506       .  S
C1622      C1623   1.416       .  A
C1622      C1627   1.422       .  A
C1623      C1624   1.410       .  A
C1623      H1628   1.083       .  S
C1624      C1690   1.478       .  S
C1624      C1625   1.397       .  A
C1625      C1626   1.386       .  A
C1625      H1629   1.085       .  S
C1626      C1627   1.420       .  A
C1627      H1630   1.083       .  S
Zn1631     O1635   1.988       .  S
Zn1631     O1636   2.021       .  S
Zn1631     O1640   2.065       .  S
Zn1631     O1647   2.099       .  S
Zn1632     O1635   1.944       .  S
Zn1632     O1637   2.051       .  S
Zn1632     O1639   2.028       .  S
Zn1632     O1643   2.148       .  S
Zn1633     O1635   1.929       .  S
Zn1633     O1638   2.068       .  S
Zn1633     O1641   2.005       .  S
Zn1633     O1644   1.979       .  S
Zn1634     O1635   1.892       .  S
Zn1634     O1642   1.996       .  S
Zn1634     O1645   2.074       .  S
Zn1634     O1646   2.017       .  S
O1636      C1648   1.281       .  A
O1637      C1649   1.274       .  A
O1638      C1650   1.275       .  A
O1639      C1648   1.285       .  A
O1640      C1650   1.274       .  A
O1641      C1649   1.274       .  A
O1642      C1651   1.275       .  A
O1643      C1652   1.290       .  A
O1644      C1651   1.274       .  A
O1645      C1652   1.279       .  A
O1646      C1653   1.279       .  A
O1647      C1653   1.285       .  A
C1648      C1865   1.487       .  S
C1649      C1703   1.489       .  S
C1653      C1694   1.504       .  S
C1654      C1655   1.423       .  A
C1654      C1659   1.414       .  A
C1655      C1656   1.435       .  A
C1655      H1660   1.083       .  S
C1656      C1657   1.404       .  A
C1657      C1658   1.406       .  A
C1657      H1661   1.084       .  S
C1658      C1730   1.485       .  S
C1658      C1659   1.417       .  A
C1663      C1835   1.457       .  S
C1663      N2420   1.353   1_455  A
N1664      C1665   1.331   1_545  A
C1665      C1845   1.463   1_565  S
C1665      N2418   1.342       .  A
N1666      C2417   1.344       .  A
C1667      C1825   1.478       .  S
C1667      N1668   1.357       .  A
N1668      C2415   1.356       .  A
Zn1669     O1673   1.958       .  S
Zn1669     O2050   2.022       .  S
Zn1669     O2054   2.117       .  S
Zn1669     O1685   2.122       .  S
Zn1670     O1673   1.985       .  S
Zn1670     O1675   2.083       .  S
Zn1670     O1677   1.945       .  S
Zn1670     O1681   2.023       .  S
Zn1671     O2049   1.951       .  S
Zn1671     O1676   2.009   1_556  S
Zn1671     O1679   2.084   1_556  S
Zn1671     O2058   1.997       .  S
Zn1672     O1673   1.926       .  S
Zn1672     O1680   1.994       .  S
Zn1672     O1683   1.995       .  S
Zn1672     O1684   2.057       .  S
O1673     Zn2047   1.932       .  S
O1674     Zn2045   1.953       .  S
O1674      C2062   1.272       .  A
O1675      C2063   1.277       .  A
O1676      C1688   1.274       .  A
O1677      C1686   1.268       .  A
O1678     Zn2045   2.052   1_554  S
O1678      C1688   1.276       .  A
O1679      C1687   1.277   1_554  A
O1680      C1689   1.274       .  A
O1681      C1690   1.272       .  A
O1682     Zn2047   2.001       .  S
O1682      C1689   1.277       .  A
O1683      C1690   1.274       .  A
O1684      C1691   1.275       .  A
O1685      C1691   1.283       .  A
C1686      C2218   1.442       .  S
C1686      O2050   1.285       .  A
C1687      C1692   1.513   1_556  S
C1687      O2051   1.279       .  A
C1689      C1819   1.446       .  S
C1691      C2558   1.511   1_545  S
C1692      C1693   1.424       .  A
C1692      C1697   1.423       .  A
C1693      C1694   1.417       .  A
C1693      H1698   1.082       .  S
C1694      C1695   1.410       .  A
C1695      C1696   1.396       .  A
C1695      H1699   1.084       .  S
C1696      C1760   1.498       .  S
C1696      C1697   1.420       .  A
C1697      H2076   1.083   1_554  S
H1700      C2073   1.083       .  S
C1701      C1702   1.417       .  A
C1701      C1706   1.427       .  A
C1702      C1703   1.418       .  A
C1703      C1704   1.406       .  A
C1704      C1705   1.394       .  A
C1704      H1708   1.084       .  S
C1705      C1759   1.511       .  S
C1705      C1706   1.435       .  A
C1706      H1709   1.083       .  S
Zn1710     O1714   1.935       .  S
Zn1710     O1715   2.019       .  S
Zn1710     O1719   1.987       .  S
Zn1710     O1726   2.100       .  S
Zn1711     O1714   2.046       .  S
Zn1711     O1716   2.051       .  S
Zn1711     O1718   2.055       .  S
Zn1711     O1722   2.054       .  S
Zn1712     O1714   1.967       .  S
Zn1712     O1717   1.988       .  S
Zn1712     O1720   2.112       .  S
Zn1712     O2099   2.084       .  S
Zn1713     O2090   1.911       .  S
Zn1713     O1721   2.025   1_556  S
Zn1713     O1724   1.977       .  S
Zn1713     O1725   2.113       .  S
O1714     Zn2089   1.899       .  S
O1715      C1727   1.276       .  A
O1716      C1728   1.277       .  A
O1717      C1729   1.281       .  A
O1718      C1727   1.279       .  A
O1719      C1729   1.276       .  A
O1720      C1728   1.283       .  A
O1721      C1730   1.271       .  A
O1722      C1731   1.270       .  A
O1723     Zn2088   2.067   1_554  S
O1723      C1730   1.277       .  A
O1724      C2107   1.278       .  A
O1725      C1732   1.287       .  A
O1726      C2108   1.280       .  A
C1729      C1815   1.443       .  S
C1731      C2208   1.450       .  S
C1731      O2100   1.245       .  A
C1732      C2549   1.528   1_546  S
C1732      O2102   1.282       .  A
C1733      C1734   1.424       .  A
C1733      C1738   1.422       .  A
C1734      C1735   1.411       .  A
C1735      C1736   1.385       .  A
C1736      C1737   1.382       .  A
C1736      H1740   1.086       .  S
C1737      C1763   1.471       .  S
C1737      C1738   1.425       .  A
C1738      H2117   1.083   1_554  S
H1741      C2114   1.083       .  S
Zn1742     O1746   1.988       .  S
Zn1742     O1747   2.172       .  S
Zn1742     O1751   2.168       .  S
Zn1742     O1758   2.178       .  S
Zn1743     O1746   1.992       .  S
Zn1743     O2124   2.038       .  S
Zn1743     O1750   1.963       .  S
Zn1743     O2130   2.006       .  S
Zn1744     O1746   1.997       .  S
Zn1744     O1749   1.986       .  S
Zn1744     O2128   2.071       .  S
Zn1744     O2131   2.087       .  S
Zn1745     O1746   1.991       .  S
Zn1745     O2129   2.105       .  S
Zn1745     O2132   2.074       .  S
Zn1745     O1757   1.994       .  S
O1747      C1759   1.295       .  A
O1748     Zn2119   2.040       .  S
O1748      C1760   1.276   1_556  A
O1749      C1761   1.267       .  A
O1750      C1759   1.261       .  A
O1751      C1761   1.298       .  A
O1752     Zn2120   2.092   1_554  S
O1752      C1760   1.281       .  A
O1753     Zn2121   2.090       .  S
O1753      C1762   1.280   1_556  A
O1754     Zn2119   1.991       .  S
O1754      C1763   1.269   1_556  A
O1755     Zn2120   2.102   1_554  S
O1755      C1762   1.286       .  A
O1756     Zn2121   2.048   1_554  S
O1756      C1763   1.283       .  A
O1757      C1764   1.267       .  A
O1758      C1764   1.296       .  A
C1761      C1792   1.512       .  S
C1762      C1801   1.514       .  S
C1764      C1810   1.520       .  S
Zn1765     O1769   1.961       .  S
Zn1765     O1770   2.120       .  S
Zn1765     O2150   2.049       .  S
Zn1765     O1781   1.968       .  S
Zn1766     O1769   2.037       .  S
Zn1766     O1771   2.076       .  S
Zn1766     O1773   2.125       .  S
Zn1766     O1777   2.084       .  S
Zn1767     O2145   1.957       .  S
Zn1767     O1772   2.054   1_556  S
Zn1767     O1775   1.935       .  S
Zn1767     O1778   2.016   1_556  S
Zn1768     O1769   1.959       .  S
Zn1768     O1776   2.170       .  S
Zn1768     O1779   1.995       .  S
Zn1768     O1780   1.994       .  S
O1769     Zn2143   1.945       .  S
O1770      C1782   1.283       .  A
O1771      C1783   1.272       .  A
O1772      C1784   1.275       .  A
O1773      C1782   1.286       .  A
O1774     Zn2141   2.072   1_554  S
O1774      C1784   1.280       .  A
O1775      C2159   1.250       .  A
O1776      C2161   1.281       .  A
O1777      C1786   1.283       .  A
O1778      C1785   1.267   1_554  A
O1779      C1786   1.272       .  A
O1780      C1787   1.282       .  A
O1781      C1787   1.275       .  A
C1782      C1788   1.533       .  S
C1783      C2198   1.473       .  S
C1783      O2151   1.250       .  A
C1785      O2152   1.283       .  A
C1787      C1817   1.438       .  S
C1788      C1789   1.416       .  A
C1788      C1793   1.432       .  A
C1789      C1790   1.413       .  A
C1789      H1794   1.083       .  S
C1790      C1791   1.397       .  A
C1791      C1792   1.396       .  A
C1791      H1795   1.085       .  S
C1792      C1793   1.439       .  A
C1793      H1796   1.083       .  S
C1797      C2484   1.538   1_554  S
C1797      C1798   1.426       .  A
C1797      C1802   1.435       .  A
C1798      C1799   1.416       .  A
C1798      H2555   1.083       .  S
C1799      C1800   1.403       .  A
C1800      C1801   1.401       .  A
C1800      H1804   1.085       .  S
C1801      C1802   1.434       .  A
C1802      H2181   1.083   1_554  S
H1803      C2550   1.083       .  S
H1805      C2178   1.083       .  S
C1806      C2443   1.512       .  S
C1806      C1807   1.413       .  A
C1806      C1811   1.424       .  A
C1807      C1808   1.412       .  A
C1807      H2564   1.084       .  S
C1808      C1809   1.418       .  A
C1809      C1810   1.401       .  A
C1809      H1813   1.083       .  S
C1810      C1811   1.430       .  A
C1811      H1814   1.083       .  S
H1812      C2559   1.083       .  S
C1815      N1816   1.345       .  A
C1815      N1820   1.356       .  A
N1816      C1817   1.343       .  A
C1817      N1818   1.353       .  A
N1818      C1819   1.354       .  A
C1819      N1820   1.358       .  A
C1821      C1822   1.435       .  A
C1821      C1826   1.405       .  A
C1821     Br1828   1.934       .  S
C1822      C2159   1.494   1_554  S
C1822      C1823   1.425       .  A
C1823      C1824   1.412       .  A
C1823     Br2206   1.924   1_554  S
C1824      C1825   1.404       .  A
C1824     Br1829   1.935       .  S
C1825      C1826   1.393       .  A
Br1830     C2199   1.923       .  S
C1831      C1832   1.409       .  A
C1831      C1836   1.403   1_556  A
C1831     Br1838   1.923       .  S
C1832      C2107   1.457   1_455  S
C1832      C2209   1.394       .  A
C1833      C2208   1.400       .  A
C1833      C2210   1.397       .  A
C1833     Br1840   1.936       .  S
C1834      C2209   1.396       .  A
C1834      C1835   1.416   1_556  A
C1834     Br2967   1.922       .  S
C1835      C1836   1.399       .  A
C1836     Br1837   1.922       .  S
Br1839     C2962   1.903       .  S
C1841      C2218   1.390       .  A
C1841      C2222   1.391       .  A
C1841     Br1848   1.926       .  S
C1842      C2062   1.447       .  S
C1842      C2217   1.396       .  A
C1842      C1843   1.410   1_556  A
C1843      C1844   1.396       .  A
C1843     Br1850   1.932       .  S
C1844      C1845   1.397       .  A
C1844     Br1849   1.915       .  S
C1845      C1846   1.416   1_554  A
C1846      C2217   1.401       .  A
C1846     Br2599   1.921   1_545  S
Br1847     C2598   1.921       .  S
C1851      C1852   1.406       .  A
C1851      C1856   1.415       .  A
C1851     Br1858   1.910       .  S
C1852      C1853   1.398       .  A
C1853      C1854   1.416       .  A
C1853     Br2612   1.915       .  S
C1854      C1855   1.438       .  A
C1854     Br1859   1.932       .  S
C1855      C1856   1.419       .  A
C1856     Br1857   1.922       .  S
Br1860     C2605   1.925       .  S
C1861      C1862   1.398       .  A
C1861      C1866   1.406       .  A
C1862      C1863   1.416       .  A
C1863      C1864   1.417       .  A
C1863     Br1870   1.918       .  S
C1864      C1865   1.413       .  A
C1864     Br1869   1.918       .  S
C1865      C1866   1.421       .  A
C1866     Br1867   1.908       .  S
C1871      C1872   1.404       .  A
C1871      C1876   1.388       .  A
C1871     Br1878   1.924       .  S
C1872      C1873   1.395       .  A
C1873      C1874   1.391       .  A
C1874      C1875   1.407       .  A
C1874     Br1879   1.921       .  S
C1875      C1876   1.392       .  A
C1876     Br1877   1.922       .  S
C1881      C2248   1.444       .  S
C1881      N2634   1.349       .  A
N1882      C2633   1.347       .  A
N1882      C1883   1.352       .  A
C1883      C2238   1.500       .  S
N1884      C2637   1.361   1_455  A
C1885      C2228   1.470       .  S
C1885      N2636   1.351   1_655  A
C1885      N1886   1.355       .  A
C1887      C1924   1.440       .  S
C1887      N1888   1.350       .  A
C1887      N1892   1.350       .  A
N1888      C1889   1.353       .  A
C1889      C1985   1.441       .  S
C1889      N1890   1.349       .  A
N1890      C1891   1.349       .  A
C1891      C2027   1.432       .  S
C1891      N1892   1.351       .  A
C1893      C1983   1.534       .  S
C1893      C1894   1.427       .  A
C1893      C1898   1.400       .  A
C1894      C1895   1.437       .  A
C1894      H1899   1.083       .  S
C1895      C1964   1.511       .  S
C1895      C1896   1.403       .  A
C1896      C1897   1.404       .  A
C1896      H1900   1.084       .  S
C1897      C2160   1.491       .  S
C1897      C1898   1.411       .  A
C1898      H1901   1.067       .  S
Zn1902     O1906   1.939       .  S
Zn1902     O1907   2.094       .  S
Zn1902     O1911   2.007       .  S
Zn1902     O1918   1.991       .  S
Zn1903     O1906   1.981       .  S
Zn1903     O1908   1.919       .  S
Zn1903     O1910   2.069       .  S
Zn1903     O1914   2.003       .  S
Zn1904     O1906   1.966       .  S
Zn1904     O1909   2.118       .  S
Zn1904     O1912   2.021       .  S
Zn1904     O1915   2.129       .  S
Zn1905     O1906   1.937       .  S
Zn1905     O1913   2.088       .  S
Zn1905     O1916   2.001       .  S
Zn1905     O1917   1.992       .  S
O1907      C1919   1.278       .  A
O1908      C1920   1.266       .  A
O1909      C1921   1.285       .  A
O1910      C1919   1.272       .  A
O1911      C1921   1.274       .  A
O1912      C1920   1.282       .  A
O1913      C1922   1.278       .  A
O1914      C1923   1.268       .  A
O1915      C1922   1.283       .  A
O1916      C1923   1.274       .  A
O1917      C1924   1.276       .  A
O1918      C1924   1.276       .  A
C1920      C2251   1.433       .  S
C1921      C2184   1.505       .  S
C1922      C2677   1.521       .  S
C1923      C2111   1.477       .  S
C1925      C2674   1.514   1_545  S
C1925      C1926   1.417       .  A
C1925      C1930   1.420       .  A
C1926      C1927   1.416       .  A
C1926      H2683   1.083       .  S
C1927      C2064   1.502       .  S
C1927      C1928   1.419       .  A
C1928      C1929   1.400       .  A
C1928      H1932   1.083       .  S
C1929      C1965   1.517       .  S
C1929      C1930   1.428       .  A
C1930      H1933   1.083       .  S
H1931      C2678   1.083       .  S
C1934      C1935   1.417       .  A
C1934      C1939   1.425       .  A
C1935      C1936   1.410       .  A
C1935      H1940   1.081   1_655  S
C1936      C2162   1.489       .  S
C1936      C1937   1.409       .  A
C1937      C1938   1.403       .  A
C1937      H1941   1.085       .  S
C1938      C1961   1.507       .  S
C1938      C1939   1.425       .  A
C1939      H1942   1.083       .  S
Zn1943     O1947   1.993       .  S
Zn1943     O1948   2.083       .  S
Zn1943     O1952   2.081       .  S
Zn1943     O1959   1.984       .  S
Zn1944     O1947   1.995       .  S
Zn1944     O1949   2.079       .  S
Zn1944     O1951   2.057       .  S
Zn1944     O1955   1.981       .  S
Zn1945     O1947   1.990       .  S
Zn1945     O1950   2.076       .  S
Zn1945     O1953   2.081       .  S
Zn1945     O1956   1.983       .  S
Zn1946     O1947   2.001       .  S
Zn1946     O1954   2.166       .  S
Zn1946     O1957   2.163       .  S
Zn1946     O1958   2.178       .  S
O1948      C1960   1.284       .  A
O1949      C1961   1.282       .  A
O1950      C1962   1.284       .  A
O1951      C1960   1.276       .  A
O1952      C1962   1.279       .  A
O1953      C1961   1.280       .  A
O1954      C1963   1.295       .  A
O1955      C1964   1.266       .  A
O1956      C1963   1.266       .  A
O1957      C1964   1.294       .  A
O1958      C1965   1.296       .  A
O1959      C1965   1.266       .  A
C1960      C2002   1.500       .  S
C1962      C1993   1.504       .  S
C1963      C2032   1.513       .  S
Zn1966     O1970   1.956       .  S
Zn1966     O1971   2.055       .  S
Zn1966     O1975   2.009       .  S
Zn1966     O1982   2.079       .  S
Zn1967     O1970   1.943       .  S
Zn1967     O1972   2.160       .  S
Zn1967     O1974   2.195       .  S
Zn1967     O1978   2.141       .  S
Zn1968     O1970   1.931       .  S
Zn1968     O1973   1.972       .  S
Zn1968     O1976   1.978       .  S
Zn1968     O1979   2.119       .  S
Zn1969     O1970   1.901       .  S
Zn1969     O1977   2.069       .  S
Zn1969     O1980   1.921       .  S
Zn1969     O1981   2.018       .  S
O1971      C1983   1.277       .  A
O1972      C1984   1.293       .  A
O1973      C1985   1.278       .  A
O1974      C1983   1.299       .  A
O1975      C1985   1.283       .  A
O1976      C1984   1.270       .  A
O1977      C1986   1.276       .  A
O1978      C1987   1.290       .  A
O1979      C1986   1.278       .  A
O1980      C1987   1.257       .  A
O1981      C1988   1.270       .  A
O1982      C1988   1.269       .  A
C1984      C2175   1.494       .  S
C1986      C2741   1.525       .  S
C1987      C2231   1.506       .  S
C1988      C2166   1.487       .  S
C1989      C2738   1.519   1_545  S
C1989      C1990   1.416       .  A
C1989      C1994   1.434       .  A
C1990      C1991   1.400       .  A
C1990      H1995   1.082       .  S
C1991      C2103   1.471       .  S
C1991      C1992   1.397       .  A
C1992      C1993   1.396       .  A
C1992      H1996   1.085       .  S
C1993      C1994   1.432       .  A
C1994      H1997   1.083       .  S
C1998      C2026   1.515       .  S
C1998      C1999   1.423       .  A
C1998      C2003   1.426       .  A
C1999      C2000   1.416       .  A
C1999      H2004   1.083       .  S
C2000      C2066   1.500       .  S
C2000      C2001   1.410       .  A
C2001      C2002   1.391       .  A
C2001      H2005   1.084       .  S
C2002      C2003   1.421       .  A
C2003      H2006   1.083       .  S
Zn2007     O2011   1.986       .  S
Zn2007     O2012   1.995       .  S
Zn2007     O2016   2.080       .  S
Zn2007     O2023   2.095       .  S
Zn2008     O2011   1.951       .  S
Zn2008     O2013   2.053       .  S
Zn2008     O2015   2.017       .  S
Zn2008     O2019   2.146       .  S
Zn2009     O2011   1.939       .  S
Zn2009     O2014   2.093       .  S
Zn2009     O2017   1.996       .  S
Zn2009     O2020   1.976       .  S
Zn2010     O2011   1.897       .  S
Zn2010     O2018   1.979       .  S
Zn2010     O2021   2.086       .  S
Zn2010     O2022   2.016       .  S
O2012      C2024   1.281       .  A
O2013      C2025   1.275       .  A
O2014      C2026   1.276       .  A
O2015      C2024   1.285       .  A
O2016      C2026   1.275       .  A
O2017      C2025   1.272       .  A
O2018      C2027   1.274       .  A
O2019      C2028   1.288       .  A
O2020      C2027   1.275       .  A
O2021      C2028   1.280       .  A
O2022      C2029   1.278       .  A
O2023      C2029   1.283       .  A
C2024      C2241   1.485       .  S
C2025      C2079   1.485       .  S
C2029      C2070   1.504       .  S
C2030      C2031   1.424       .  A
C2030      C2035   1.410       .  A
C2031      C2032   1.435       .  A
C2031      H2036   1.083       .  S
C2032      C2033   1.402       .  A
C2033      C2034   1.403       .  A
C2033      H2037   1.084       .  S
C2034      C2106   1.474       .  S
C2034      C2035   1.413       .  A
C2039      C2211   1.468   1_565  S
C2039      N2796   1.361       .  A
N2040      C2041   1.333       .  A
C2041      C2221   1.447       .  S
C2041      N2794   1.344   1_545  A
N2042      C2793   1.349       .  A
C2043      C2201   1.470       .  S
C2043      N2044   1.358       .  A
N2044      C2791   1.353       .  A
Zn2045     O2049   1.967       .  S
Zn2045     O2061   2.089       .  S
Zn2046     O2049   1.989       .  S
Zn2046     O2051   2.101       .  S
Zn2046     O2053   2.019       .  S
Zn2046     O2057   2.108       .  S
Zn2047     O2052   1.978       .  S
Zn2047     O2055   2.080       .  S
Zn2048     O2049   1.924       .  S
Zn2048     O2056   1.988       .  S
Zn2048     O2059   1.974       .  S
Zn2048     O2060   2.070       .  S
O2052      C2064   1.271       .  A
O2053      C2062   1.281       .  A
O2054      C2064   1.284       .  A
O2055      C2063   1.275       .  A
O2056      C2065   1.274       .  A
O2057      C2066   1.282       .  A
O2058      C2065   1.276       .  A
O2059      C2066   1.272       .  A
O2060      C2067   1.275       .  A
O2061      C2067   1.278       .  A
C2063      C2068   1.510       .  S
C2065      C2195   1.442       .  S
C2067      C2934   1.507   1_545  S
C2068      C2069   1.425       .  A
C2068      C2073   1.418       .  A
C2069      C2070   1.420       .  A
C2069      H2074   1.083       .  S
C2070      C2071   1.410       .  A
C2071      C2072   1.395       .  A
C2071      H2075   1.084       .  S
C2072      C2136   1.492       .  S
C2072      C2073   1.415       .  A
C2077      C2078   1.414       .  A
C2077      C2082   1.421       .  A
C2078      C2079   1.412       .  A
C2079      C2080   1.406       .  A
C2080      C2081   1.396       .  A
C2080      H2084   1.084       .  S
C2081      C2135   1.503       .  S
C2081      C2082   1.429       .  A
C2082      H2085   1.083       .  S
Zn2086     O2090   1.942       .  S
Zn2086     O2091   2.018       .  S
Zn2086     O2095   1.985       .  S
Zn2086     O2102   2.109       .  S
Zn2087     O2090   1.975       .  S
Zn2087     O2092   2.032       .  S
Zn2087     O2094   2.035       .  S
Zn2087     O2098   1.983       .  S
Zn2088     O2090   1.961       .  S
Zn2088     O2093   1.990       .  S
Zn2088     O2096   2.124       .  S
Zn2089     O2097   1.964       .  S
Zn2089     O2100   1.980       .  S
Zn2089     O2101   2.147       .  S
O2091      C2103   1.273       .  A
O2092      C2104   1.272       .  A
O2093      C2105   1.280       .  A
O2094      C2103   1.276       .  A
O2095      C2105   1.277       .  A
O2096      C2104   1.281       .  A
O2097      C2106   1.263       .  A
O2098      C2107   1.274       .  A
O2099      C2106   1.277       .  A
O2101      C2108   1.289       .  A
C2105      C2191   1.443       .  S
C2108      C2925   1.537   1_545  S
C2109      C2110   1.421       .  A
C2109      C2114   1.427       .  A
C2110      C2111   1.407       .  A
C2111      C2112   1.389       .  A
C2112      C2113   1.383       .  A
C2112      H2116   1.085       .  S
C2113      C2139   1.483       .  S
C2113      C2114   1.429       .  A
Zn2118     O2122   1.986       .  S
Zn2118     O2123   2.138       .  S
Zn2118     O2127   2.132       .  S
Zn2118     O2134   2.161       .  S
Zn2119     O2122   1.983       .  S
Zn2119     O2126   1.964       .  S
Zn2120     O2122   1.998       .  S
Zn2120     O2125   1.976       .  S
Zn2121     O2122   1.983       .  S
Zn2121     O2133   2.003       .  S
O2123      C2135   1.289       .  A
O2124      C2136   1.277       .  A
O2125      C2137   1.267       .  A
O2126      C2135   1.262       .  A
O2127      C2137   1.295       .  A
O2128      C2136   1.279       .  A
O2129      C2138   1.283       .  A
O2130      C2139   1.269       .  A
O2131      C2138   1.283       .  A
O2132      C2139   1.285       .  A
O2133      C2140   1.268       .  A
O2134      C2140   1.292       .  A
C2137      C2168   1.500       .  S
C2138      C2177   1.515       .  S
C2140      C2186   1.518       .  S
Zn2141     O2145   1.972       .  S
Zn2141     O2146   2.146       .  S
Zn2141     O2157   1.982       .  S
Zn2142     O2145   2.041       .  S
Zn2142     O2147   2.099       .  S
Zn2142     O2149   2.110       .  S
Zn2142     O2153   2.120       .  S
Zn2143     O2148   2.070       .  S
Zn2143     O2151   1.980       .  S
Zn2143     O2154   1.996       .  S
Zn2144     O2145   1.971       .  S
Zn2144     O2152   2.177       .  S
Zn2144     O2155   2.002       .  S
Zn2144     O2156   1.987       .  S
O2146      C2158   1.286       .  A
O2147      C2159   1.274       .  A
O2148      C2160   1.276       .  A
O2149      C2158   1.280       .  A
O2150      C2160   1.276       .  A
O2153      C2162   1.289       .  A
O2154      C2161   1.263       .  A
O2155      C2162   1.274       .  A
O2156      C2163   1.279       .  A
O2157      C2163   1.277       .  A
C2158      C2164   1.538       .  S
C2163      C2193   1.440       .  S
C2164      C2165   1.428       .  A
C2164      C2169   1.426       .  A
C2165      C2166   1.425       .  A
C2165      H2170   1.083       .  S
C2166      C2167   1.394       .  A
C2167      C2168   1.391       .  A
C2167      H2171   1.085       .  S
C2168      C2169   1.432       .  A
C2169      H2172   1.083       .  S
C2173      C2860   1.533       .  S
C2173      C2174   1.424       .  A
C2173      C2178   1.435       .  A
C2174      C2175   1.414       .  A
C2174      H2931   1.081       .  S
C2175      C2176   1.406       .  A
C2176      C2177   1.402       .  A
C2176      H2180   1.085       .  S
C2177      C2178   1.432       .  A
H2179      C2926   1.083   1_545  S
C2182      C2819   1.514       .  S
C2182      C2183   1.417       .  A
C2182      C2187   1.421       .  A
C2183      C2184   1.416       .  A
C2183      H2940   1.083       .  S
C2184      C2185   1.418       .  A
C2185      C2186   1.405       .  A
C2185      H2189   1.083       .  S
C2186      C2187   1.427       .  A
C2187      H2190   1.083       .  S
H2188      C2935   1.083       .  S
C2191      N2192   1.348       .  A
C2191      N2196   1.354       .  A
N2192      C2193   1.347       .  A
C2193      N2194   1.352       .  A
N2194      C2195   1.352       .  A
C2195      N2196   1.354       .  A
C2197      C2198   1.429       .  A
C2197      C2202   1.403       .  A
C2197     Br2204   1.934   1_655  S
C2198      C2199   1.419       .  A
C2199      C2200   1.400       .  A
C2200      C2201   1.406       .  A
C2200     Br2205   1.930       .  S
C2201      C2202   1.397       .  A
C2207      C2208   1.415       .  A
C2207      C2212   1.399       .  A
C2207     Br2214   1.936   1_655  S
C2209     Br2216   1.923       .  S
C2210      C2211   1.416       .  A
C2210     Br2591   1.900   1_545  S
C2211      C2212   1.408       .  A
C2212     Br2213   1.930       .  S
Br2215     C2586   1.900       .  S
C2217     Br2224   1.929   1_545  S
C2218      C2219   1.405       .  A
C2219      C2220   1.395       .  A
C2219     Br2226   1.916       .  S
C2220      C2221   1.398       .  A
C2220     Br2225   1.925       .  S
C2221      C2222   1.417       .  A
C2222     Br2975   1.915   1_545  S
Br2223     C2974   1.921       .  S
C2227      C2228   1.404       .  A
C2227      C2232   1.412       .  A
C2227     Br2234   1.909       .  S
C2228      C2229   1.389       .  A
C2229      C2230   1.399       .  A
C2229     Br2988   1.937       .  S
C2230      C2231   1.439       .  A
C2230     Br2235   1.917       .  S
C2231      C2232   1.414       .  A
C2232     Br2233   1.926       .  S
Br2236     C2981   1.916       .  S
C2237      C2238   1.396       .  A
C2237      C2242   1.409       .  A
C2238      C2239   1.412       .  A
C2239      C2240   1.417       .  A
C2239     Br2246   1.917       .  S
C2240      C2241   1.419       .  A
C2240     Br2245   1.919       .  S
C2241      C2242   1.427       .  A
C2242     Br2243   1.911       .  S
C2247      C2248   1.402       .  A
C2247      C2252   1.399       .  A
C2247     Br2254   1.918       .  S
C2248      C2249   1.394       .  A
C2249      C2250   1.390       .  A
C2250      C2251   1.407       .  A
C2250     Br2255   1.925       .  S
C2251      C2252   1.401       .  A
C2252     Br2253   1.925       .  S
C2257      C2624   1.443   1_545  S
N2258      C2259   1.357       .  A
C2259      C2614   1.491       .  S
C2261      C2604   1.484       .  S
C2261      N2262   1.359   1_545  A
C2263      C2300   1.447       .  S
C2263      N2264   1.355       .  A
C2263      N2268   1.353       .  A
N2264      C2265   1.355       .  A
C2265      C2361   1.448       .  S
C2265      N2266   1.351       .  A
N2266      C2267   1.349       .  A
C2267      C2403   1.439       .  S
C2267      N2268   1.353       .  A
C2269      C2359   1.523       .  S
C2269      C2270   1.428       .  A
C2269      C2274   1.405       .  A
C2270      C2271   1.436       .  A
C2270      H2275   1.083       .  S
C2271      C2340   1.511       .  S
C2271      C2272   1.400       .  A
C2272      C2273   1.400       .  A
C2272      H2276   1.084       .  S
C2273      C2536   1.473       .  S
C2273      C2274   1.411       .  A
C2274      H2277   1.077       .  S
Zn2278     O2282   1.943       .  S
Zn2278     O2283   2.099       .  S
Zn2278     O2287   2.002       .  S
Zn2278     O2294   2.016       .  S
Zn2279     O2282   1.979       .  S
Zn2279     O2284   1.947       .  S
Zn2279     O2286   2.091       .  S
Zn2279     O2290   2.032       .  S
Zn2280     O2282   1.974       .  S
Zn2280     O2285   2.106       .  S
Zn2280     O2288   2.020       .  S
Zn2280     O2291   2.118       .  S
Zn2281     O2282   1.942       .  S
Zn2281     O2289   2.069       .  S
Zn2281     O2292   2.007       .  S
Zn2281     O2293   1.989       .  S
O2283      C2295   1.279       .  A
O2284      C2296   1.269       .  A
O2285      C2297   1.284       .  A
O2286      C2295   1.277       .  A
O2287      C2297   1.274       .  A
O2288      C2296   1.283       .  A
O2289      C2298   1.276       .  A
O2290      C2299   1.273       .  A
O2291      C2298   1.282       .  A
O2292      C2299   1.274       .  A
O2293      C2300   1.274       .  A
O2294      C2300   1.279       .  A
C2296      C2627   1.448       .  S
C2297      C2560   1.501       .  S
C2299      C2487   1.485       .  S
C2301      C2302   1.418       .  A
C2301      C2306   1.426       .  A
C2302      C2303   1.420       .  A
C2303      C2440   1.498       .  S
C2303      C2304   1.409       .  A
C2304      C2305   1.399       .  A
C2304      H2308   1.084       .  S
C2305      C2341   1.515       .  S
C2305      C2306   1.435       .  A
C2306      H2309   1.083       .  S
C2310      C2311   1.424       .  A
C2310      C2315   1.429       .  A
C2311      C2312   1.416       .  A
C2311      H2316   1.080   1_655  S
C2312      C2538   1.492       .  S
C2312      C2313   1.403       .  A
C2313      C2314   1.397       .  A
C2313      H2317   1.085       .  S
C2314      C2337   1.506       .  S
C2314      C2315   1.428       .  A
C2315      H2318   1.083       .  S
Zn2319     O2323   1.990       .  S
Zn2319     O2324   2.066       .  S
Zn2319     O2328   2.073       .  S
Zn2319     O2335   1.981       .  S
Zn2320     O2323   1.992       .  S
Zn2320     O2325   2.074       .  S
Zn2320     O2327   2.061       .  S
Zn2320     O2331   1.981       .  S
Zn2321     O2323   1.990       .  S
Zn2321     O2326   2.084       .  S
Zn2321     O2329   2.086       .  S
Zn2321     O2332   1.979       .  S
Zn2322     O2323   1.988       .  S
Zn2322     O2330   2.158       .  S
Zn2322     O2333   2.163       .  S
Zn2322     O2334   2.170       .  S
O2324      C2336   1.283       .  A
O2325      C2337   1.283       .  A
O2326      C2338   1.285       .  A
O2327      C2336   1.277       .  A
O2328      C2338   1.278       .  A
O2329      C2337   1.280       .  A
O2330      C2339   1.294       .  A
O2331      C2340   1.265       .  A
O2332      C2339   1.266       .  A
O2333      C2340   1.294       .  A
O2334      C2341   1.296       .  A
O2335      C2341   1.265       .  A
C2336      C2378   1.498       .  S
C2338      C2369   1.506       .  S
C2339      C2408   1.511       .  S
Zn2342     O2346   1.952       .  S
Zn2342     O2347   2.067       .  S
Zn2342     O2351   2.000       .  S
Zn2342     O2358   2.067       .  S
Zn2343     O2346   2.001       .  S
Zn2343     O2348   2.102       .  S
Zn2343     O2350   2.151       .  S
Zn2343     O2354   2.137       .  S
Zn2344     O2346   1.924       .  S
Zn2344     O2349   1.994       .  S
Zn2344     O2352   2.028       .  S
Zn2344     O2355   2.122       .  S
Zn2345     O2346   1.885       .  S
Zn2345     O2353   2.063       .  S
Zn2345     O2356   1.922       .  S
Zn2345     O2357   1.980       .  S
O2347      C2359   1.279       .  A
O2348      C2360   1.284       .  A
O2349      C2361   1.279       .  A
O2350      C2359   1.293       .  A
O2351      C2361   1.281       .  A
O2352      C2360   1.277       .  A
O2353      C2362   1.278       .  A
O2354      C2363   1.276       .  A
O2355      C2362   1.283       .  A
O2356      C2363   1.245       .  A
O2357      C2364   1.265       .  A
O2358      C2364   1.273       .  A
C2360      C2551   1.491       .  S
C2363      C2607   1.501       .  S
C2364      C2542   1.473       .  S
C2365      C2366   1.417       .  A
C2365      C2370   1.435       .  A
C2366      C2367   1.401       .  A
C2366      H2371   1.083       .  S
C2367      C2479   1.472       .  S
C2367      C2368   1.397       .  A
C2368      C2369   1.397       .  A
C2368      H2372   1.085       .  S
C2369      C2370   1.436       .  A
C2370      H2373   1.082       .  S
C2374      C2402   1.517       .  S
C2374      C2375   1.427       .  A
C2374      C2379   1.425       .  A
C2375      C2376   1.420       .  A
C2375      H2380   1.082       .  S
C2376      C2442   1.506       .  S
C2376      C2377   1.408       .  A
C2377      C2378   1.391       .  A
C2377      H2381   1.084       .  S
C2378      C2379   1.420       .  A
C2379      H2382   1.083       .  S
Zn2383     O2387   1.993       .  S
Zn2383     O2388   1.983       .  S
Zn2383     O2392   2.086       .  S
Zn2383     O2399   2.082       .  S
Zn2384     O2387   1.963       .  S
Zn2384     O2389   2.054       .  S
Zn2384     O2391   2.019       .  S
Zn2384     O2395   2.139       .  S
Zn2385     O2387   1.940       .  S
Zn2385     O2390   2.103       .  S
Zn2385     O2393   2.004       .  S
Zn2385     O2396   1.986       .  S
Zn2386     O2387   1.911       .  S
Zn2386     O2394   1.997       .  S
Zn2386     O2397   2.089       .  S
Zn2386     O2398   2.016       .  S
O2388      C2400   1.278       .  A
O2389      C2401   1.275       .  A
O2390      C2402   1.278       .  A
O2391      C2400   1.281       .  A
O2392      C2402   1.276       .  A
O2393      C2401   1.273       .  A
O2394      C2403   1.276       .  A
O2395      C2404   1.288       .  A
O2396      C2403   1.276       .  A
O2397      C2404   1.281       .  A
O2398      C2405   1.278       .  A
O2399      C2405   1.281       .  A
C2400      C2617   1.489       .  S
C2401      C2455   1.488       .  S
C2405      C2446   1.497       .  S
C2406      C2407   1.424       .  A
C2406      C2411   1.416       .  A
C2407      C2408   1.436       .  A
C2407      H2412   1.083       .  S
C2408      C2409   1.401       .  A
C2409      C2410   1.402       .  A
C2409      H2413   1.084       .  S
C2410      C2482   1.481       .  S
C2410      C2411   1.417       .  A
C2415      C2587   1.458       .  S
N2416      C2417   1.334       .  A
C2417      C2597   1.466       .  S
C2419      C2577   1.477   1_545  S
C2419      N2420   1.352       .  A
Zn2421     O2425   1.979       .  S
Zn2421     O2802   1.959       .  S
Zn2421     O2806   2.055       .  S
Zn2421     O2437   2.087       .  S
Zn2422     O2425   2.002       .  S
Zn2422     O2427   2.106       .  S
Zn2422     O2429   2.033       .  S
Zn2422     O2433   2.111       .  S
Zn2423     O2801   1.958       .  S
Zn2423     O2428   2.031   1_556  S
Zn2423     O2431   2.074   1_556  S
Zn2423     O2810   2.002       .  S
Zn2424     O2425   1.933       .  S
Zn2424     O2432   2.005       .  S
Zn2424     O2435   2.003       .  S
Zn2424     O2436   2.090       .  S
O2425     Zn2799   1.958       .  S
O2426     Zn2797   1.964       .  S
O2426      C2814   1.273       .  A
O2427      C2815   1.279       .  A
O2428      C2440   1.276       .  A
O2429      C2438   1.282       .  A
O2430     Zn2797   2.068   1_554  S
O2430      C2440   1.277       .  A
O2431      C2439   1.276   1_554  A
O2432      C2441   1.275       .  A
O2433      C2442   1.283       .  A
O2434     Zn2799   1.996       .  S
O2434      C2441   1.275       .  A
O2435      C2442   1.276       .  A
O2436      C2443   1.279       .  A
O2437      C2443   1.278       .  A
C2438      C2970   1.453       .  S
C2438      O2802   1.273       .  A
C2439      C2444   1.509   1_556  S
C2439      O2803   1.278       .  A
C2441      C2571   1.446       .  S
C2444      C2445   1.420       .  A
C2444      C2449   1.423   1_554  A
C2445      C2446   1.414       .  A
C2445      H2450   1.082       .  S
C2446      C2447   1.405       .  A
C2447      C2448   1.393       .  A
C2447      H2451   1.084       .  S
C2448      C2512   1.492   1_554  S
C2448      C2449   1.421   1_554  A
C2449      H2828   1.083       .  S
H2452      C2825   1.083       .  S
C2453      C2454   1.416       .  A
C2453      C2458   1.423       .  A
C2454      C2455   1.415       .  A
C2455      C2456   1.406       .  A
C2456      C2457   1.396       .  A
C2456      H2460   1.084       .  S
C2457      C2511   1.506       .  S
C2457      C2458   1.432       .  A
C2458      H2461   1.083       .  S
Zn2462     O2466   1.940       .  S
Zn2462     O2467   2.013       .  S
Zn2462     O2471   1.980       .  S
Zn2462     O2478   2.119       .  S
Zn2463     O2466   2.030       .  S
Zn2463     O2468   2.084       .  S
Zn2463     O2470   2.050       .  S
Zn2463     O2474   2.068       .  S
Zn2464     O2466   1.960       .  S
Zn2464     O2469   2.000       .  S
Zn2464     O2472   2.113       .  S
Zn2464     O2851   2.087       .  S
Zn2465     O2842   1.892       .  S
Zn2465     O2473   1.957   1_556  S
Zn2465     O2476   1.986       .  S
Zn2465     O2477   2.120   1_556  S
O2466     Zn2841   1.895       .  S
O2467      C2479   1.275       .  A
O2468      C2480   1.282       .  A
O2469      C2481   1.282       .  A
O2470      C2479   1.278       .  A
O2471      C2481   1.277       .  A
O2472      C2480   1.284       .  A
O2473      C2482   1.260       .  A
O2474      C2483   1.267       .  A
O2475     Zn2840   2.109   1_554  S
O2475      C2482   1.278       .  A
O2476      C2859   1.244       .  A
O2477      C2484   1.284   1_554  A
O2478      C2860   1.281       .  A
C2481      C2567   1.444       .  S
C2483      C2960   1.471       .  S
C2483      O2852   1.246       .  A
C2484      O2854   1.283       .  A
C2485      C2486   1.423       .  A
C2485      C2490   1.426   1_554  A
C2486      C2487   1.408       .  A
C2487      C2488   1.395       .  A
C2488      C2489   1.389       .  A
C2488      H2492   1.085       .  S
C2489      C2515   1.487   1_554  S
C2489      C2490   1.429   1_554  A
C2490      H2869   1.083       .  S
H2493      C2866   1.083       .  S
Zn2494     O2498   1.991       .  S
Zn2494     O2499   2.151       .  S
Zn2494     O2503   2.159       .  S
Zn2494     O2510   2.166       .  S
Zn2495     O2498   1.985       .  S
Zn2495     O2876   2.046       .  S
Zn2495     O2502   1.961       .  S
Zn2495     O2882   2.000       .  S
Zn2496     O2498   1.995       .  S
Zn2496     O2501   1.968       .  S
Zn2496     O2880   2.082       .  S
Zn2496     O2883   2.087       .  S
Zn2497     O2498   1.993       .  S
Zn2497     O2881   2.119       .  S
Zn2497     O2884   2.081       .  S
Zn2497     O2509   2.004       .  S
O2499      C2511   1.291       .  A
O2500     Zn2871   2.042       .  S
O2500      C2512   1.277       .  A
O2501      C2513   1.265       .  A
O2502      C2511   1.261       .  A
O2503      C2513   1.297       .  A
O2504     Zn2872   2.067       .  S
O2504      C2512   1.278       .  A
O2505     Zn2873   2.118       .  S
O2505      C2514   1.284       .  A
O2506     Zn2871   2.013       .  S
O2506      C2515   1.271       .  A
O2507     Zn2872   2.090       .  S
O2507      C2514   1.283       .  A
O2508     Zn2873   2.083       .  S
O2508      C2515   1.286       .  A
O2509      C2516   1.269       .  A
O2510      C2516   1.294       .  A
C2513      C2544   1.506       .  S
C2514      C2553   1.519   1_556  S
C2516      C2562   1.518       .  S
Zn2517     O2521   1.981       .  S
Zn2517     O2522   2.126       .  S
Zn2517     O2902   2.046       .  S
Zn2517     O2533   1.971       .  S
Zn2518     O2521   2.032       .  S
Zn2518     O2523   2.091       .  S
Zn2518     O2525   2.109       .  S
Zn2518     O2529   2.126       .  S
Zn2519     O2897   1.928       .  S
Zn2519     O2524   2.014   1_556  S
Zn2519     O2527   1.913       .  S
Zn2519     O2530   2.057   1_556  S
Zn2520     O2521   1.960       .  S
Zn2520     O2528   2.172       .  S
Zn2520     O2531   2.005       .  S
Zn2520     O2532   2.000       .  S
O2521     Zn2895   1.953       .  S
O2522      C2534   1.282       .  A
O2523      C2535   1.274       .  A
O2524      C2536   1.271       .  A
O2525      C2534   1.282       .  A
O2526     Zn2893   2.044   1_554  S
O2526      C2536   1.276       .  A
O2527      C2911   1.269       .  A
O2528      C2913   1.281       .  A
O2529      C2538   1.290       .  A
O2530      C2537   1.277   1_554  A
O2531      C2538   1.276       .  A
O2532      C2539   1.282       .  A
O2533      C2539   1.276       .  A
C2534      C2540   1.532       .  S
C2535      C2950   1.493       .  S
C2535      O2903   1.250       .  A
C2537      O2904   1.284       .  A
C2539      C2569   1.441       .  S
C2540      C2541   1.416       .  A
C2540      C2545   1.427       .  A
C2541      C2542   1.415       .  A
C2541      H2546   1.082       .  S
C2542      C2543   1.396       .  A
C2543      C2544   1.394       .  A
C2543      H2547   1.085       .  S
C2544      C2545   1.437       .  A
C2545      H2548   1.083       .  S
C2549      C2550   1.418       .  A
C2549      C2554   1.436   1_554  A
C2550      C2551   1.409       .  A
C2551      C2552   1.408       .  A
C2552      C2553   1.404       .  A
C2552      H2556   1.085       .  S
C2553      C2554   1.433   1_554  A
C2554      H2933   1.083       .  S
H2557      C2930   1.083       .  S
C2558      C2559   1.416       .  A
C2558      C2563   1.421       .  A
C2559      C2560   1.414       .  A
C2560      C2561   1.417       .  A
C2561      C2562   1.404       .  A
C2561      H2565   1.083       .  S
C2562      C2563   1.429       .  A
C2563      H2566   1.083       .  S
C2567      N2568   1.347       .  A
C2567      N2572   1.355       .  A
N2568      C2569   1.347       .  A
C2569      N2570   1.354       .  A
N2570      C2571   1.353       .  A
C2571      N2572   1.355       .  A
C2573      C2574   1.410   1_554  A
C2573      C2578   1.397       .  A
C2573     Br2580   1.912       .  S
C2574      C2911   1.461       .  S
C2574      C2575   1.390       .  A
C2575      C2576   1.399       .  A
C2575     Br2958   1.921       .  S
C2576      C2577   1.413   1_556  A
C2576     Br2581   1.887   1_565  S
C2577      C2578   1.399       .  A
Br2582     C2951   1.927       .  S
C2583      C2584   1.420   1_554  A
C2583      C2588   1.400       .  A
C2583     Br2590   1.936       .  S
C2584      C2859   1.451       .  S
C2584      C2961   1.403       .  A
C2585      C2960   1.414       .  A
C2585      C2962   1.404       .  A
C2585     Br2592   1.933       .  S
C2586      C2961   1.396   1_554  A
C2586      C2587   1.415       .  A
C2587      C2588   1.401       .  A
C2588     Br2589   1.924       .  S
C2593      C2970   1.395       .  A
C2593      C2974   1.400       .  A
C2593     Br2600   1.929       .  S
C2594      C2814   1.455       .  S
C2594      C2969   1.397       .  A
C2594      C2595   1.413   1_556  A
C2595      C2596   1.402       .  A
C2595     Br2602   1.930       .  S
C2596      C2597   1.400       .  A
C2596     Br2601   1.925       .  S
C2597      C2598   1.416   1_554  A
C2598      C2969   1.401       .  A
C2603      C2604   1.410       .  A
C2603      C2608   1.422       .  A
C2603     Br2610   1.918       .  S
C2604      C2605   1.394   1_545  A
C2605      C2606   1.400       .  A
C2606      C2607   1.433       .  A
C2606     Br2611   1.941       .  S
C2607      C2608   1.422   1_565  A
C2608     Br2609   1.925       .  S
C2613      C2614   1.391       .  A
C2613      C2618   1.405       .  A
C2614      C2615   1.412       .  A
C2615      C2616   1.414       .  A
C2615     Br2622   1.921       .  S
C2616      C2617   1.419       .  A
C2616     Br2621   1.926       .  S
C2617      C2618   1.428       .  A
C2618     Br2619   1.910       .  S
C2623      C2624   1.400   1_545  A
C2623      C2628   1.399   1_545  A
C2623     Br2630   1.920       .  S
C2624      C2625   1.400       .  A
C2625      C2626   1.392       .  A
C2626      C2627   1.410       .  A
C2626     Br2631   1.933       .  S
C2627      C2628   1.403       .  A
C2628     Br2629   1.926   1_565  S
C2633      C3000   1.447   1_545  S
N2634      C2635   1.354       .  A
C2635      C2990   1.498       .  S
C2637      C2980   1.484       .  S
C2637      N2638   1.353   1_545  A
C2639      C2676   1.451       .  S
C2639      N2640   1.355       .  A
C2639      N2644   1.354       .  A
N2640      C2641   1.356       .  A
C2641      C2737   1.446       .  S
C2641      N2642   1.349       .  A
N2642      C2643   1.347       .  A
C2643      C2779   1.438       .  S
C2643      N2644   1.354       .  A
C2645      C2735   1.527       .  S
C2645      C2646   1.429       .  A
C2645      C2650   1.403       .  A
C2646      C2647   1.438       .  A
C2646      H2651   1.083       .  S
C2647      C2716   1.518       .  S
C2647      C2648   1.405       .  A
C2648      C2649   1.405       .  A
C2648      H2652   1.084       .  S
C2649      C2912   1.481       .  S
C2649      C2650   1.404       .  A
C2650      H2653   1.062       .  S
Zn2654     O2658   1.935       .  S
Zn2654     O2659   2.085       .  S
Zn2654     O2663   1.988       .  S
Zn2654     O2670   2.005       .  S
Zn2655     O2658   1.969       .  S
Zn2655     O2660   1.943       .  S
Zn2655     O2662   2.073       .  S
Zn2655     O2666   2.018       .  S
Zn2656     O2658   1.966       .  S
Zn2656     O2661   2.125       .  S
Zn2656     O2664   2.047       .  S
Zn2656     O2667   2.107       .  S
Zn2657     O2658   1.933       .  S
Zn2657     O2665   2.081       .  S
Zn2657     O2668   1.998       .  S
Zn2657     O2669   2.007       .  S
O2659      C2671   1.277       .  A
O2660      C2672   1.269       .  A
O2661      C2673   1.288       .  A
O2662      C2671   1.275       .  A
O2663      C2673   1.272       .  A
O2664      C2672   1.286       .  A
O2665      C2674   1.277       .  A
O2666      C2675   1.271       .  A
O2667      C2674   1.280       .  A
O2668      C2675   1.275       .  A
O2669      C2676   1.276       .  A
O2670      C2676   1.277       .  A
C2672      C3003   1.454       .  S
C2673      C2936   1.503       .  S
C2675      C2863   1.480       .  S
C2677      C2678   1.418       .  A
C2677      C2682   1.421       .  A
C2678      C2679   1.419       .  A
C2679      C2816   1.492       .  S
C2679      C2680   1.407       .  A
C2680      C2681   1.395       .  A
C2680      H2684   1.084       .  S
C2681      C2717   1.507       .  S
C2681      C2682   1.431       .  A
C2682      H2685   1.083       .  S
C2686      C2687   1.418       .  A
C2686      C2691   1.421       .  A
C2687      C2688   1.410       .  A
C2687      H2692   1.079   1_655  S
C2688      C2914   1.484       .  S
C2688      C2689   1.404       .  A
C2689      C2690   1.399       .  A
C2689      H2693   1.085       .  S
C2690      C2713   1.496       .  S
C2690      C2691   1.421       .  A
C2691      H2694   1.083       .  S
Zn2695     O2699   1.990       .  S
Zn2695     O2700   2.071       .  S
Zn2695     O2704   2.078       .  S
Zn2695     O2711   1.962       .  S
Zn2696     O2699   1.994       .  S
Zn2696     O2701   2.075       .  S
Zn2696     O2703   2.066       .  S
Zn2696     O2707   2.001       .  S
Zn2697     O2699   1.984       .  S
Zn2697     O2702   2.078       .  S
Zn2697     O2705   2.054       .  S
Zn2697     O2708   1.976       .  S
Zn2698     O2699   1.997       .  S
Zn2698     O2706   2.163       .  S
Zn2698     O2709   2.173       .  S
Zn2698     O2710   2.163       .  S
O2700      C2712   1.283       .  A
O2701      C2713   1.282       .  A
O2702      C2714   1.282       .  A
O2703      C2712   1.278       .  A
O2704      C2714   1.277       .  A
O2705      C2713   1.278       .  A
O2706      C2715   1.295       .  A
O2707      C2716   1.268       .  A
O2708      C2715   1.265       .  A
O2709      C2716   1.295       .  A
O2710      C2717   1.295       .  A
O2711      C2717   1.264       .  A
C2712      C2754   1.500       .  S
C2714      C2745   1.507       .  S
C2715      C2784   1.511       .  S
Zn2718     O2722   1.955       .  S
Zn2718     O2723   2.067       .  S
Zn2718     O2727   2.004       .  S
Zn2718     O2734   2.059       .  S
Zn2719     O2722   1.972       .  S
Zn2719     O2724   2.111       .  S
Zn2719     O2726   2.168       .  S
Zn2719     O2730   2.094       .  S
Zn2720     O2722   1.959       .  S
Zn2720     O2725   1.985       .  S
Zn2720     O2728   2.005       .  S
Zn2720     O2731   2.107       .  S
Zn2721     O2722   1.927       .  S
Zn2721     O2729   2.059       .  S
Zn2721     O2732   1.926       .  S
Zn2721     O2733   1.990       .  S
O2723      C2735   1.279       .  A
O2724      C2736   1.285       .  A
O2725      C2737   1.277       .  A
O2726      C2735   1.296       .  A
O2727      C2737   1.282       .  A
O2728      C2736   1.272       .  A
O2729      C2738   1.276       .  A
O2730      C2739   1.282       .  A
O2731      C2738   1.277       .  A
O2732      C2739   1.256       .  A
O2733      C2740   1.266       .  A
O2734      C2740   1.272       .  A
C2736      C2927   1.490       .  S
C2739      C2983   1.502       .  S
C2740      C2918   1.471       .  S
C2741      C2742   1.419       .  A
C2741      C2746   1.435       .  A
C2742      C2743   1.404       .  A
C2742      H2747   1.084       .  S
C2743      C2855   1.477       .  S
C2743      C2744   1.399       .  A
C2744      C2745   1.397       .  A
C2744      H2748   1.085       .  S
C2745      C2746   1.433       .  A
C2746      H2749   1.083       .  S
C2750      C2778   1.514       .  S
C2750      C2751   1.425       .  A
C2750      C2755   1.423       .  A
C2751      C2752   1.419       .  A
C2751      H2756   1.082       .  S
C2752      C2818   1.507       .  S
C2752      C2753   1.412       .  A
C2753      C2754   1.395       .  A
C2753      H2757   1.084       .  S
C2754      C2755   1.419       .  A
C2755      H2758   1.083       .  S
Zn2759     O2763   1.990       .  S
Zn2759     O2764   1.997       .  S
Zn2759     O2768   2.082       .  S
Zn2759     O2775   2.091       .  S
Zn2760     O2763   1.967       .  S
Zn2760     O2765   2.068       .  S
Zn2760     O2767   2.023       .  S
Zn2760     O2771   2.135       .  S
Zn2761     O2763   1.942       .  S
Zn2761     O2766   2.097       .  S
Zn2761     O2769   1.996       .  S
Zn2761     O2772   1.985       .  S
Zn2762     O2763   1.919       .  S
Zn2762     O2770   1.984       .  S
Zn2762     O2773   2.079       .  S
Zn2762     O2774   2.023       .  S
O2764      C2776   1.280       .  A
O2765      C2777   1.277       .  A
O2766      C2778   1.277       .  A
O2767      C2776   1.283       .  A
O2768      C2778   1.276       .  A
O2769      C2777   1.272       .  A
O2770      C2779   1.273       .  A
O2771      C2780   1.285       .  A
O2772      C2779   1.276       .  A
O2773      C2780   1.278       .  A
O2774      C2781   1.278       .  A
O2775      C2781   1.283       .  A
C2776      C2993   1.486       .  S
C2777      C2831   1.489       .  S
C2781      C2822   1.501       .  S
C2782      C2783   1.424       .  A
C2782      C2787   1.410       .  A
C2783      C2784   1.437       .  A
C2783      H2788   1.083       .  S
C2784      C2785   1.401       .  A
C2785      C2786   1.401       .  A
C2785      H2789   1.084       .  S
C2786      C2858   1.471       .  S
C2786      C2787   1.412       .  A
C2791      C2963   1.463       .  S
N2792      C2793   1.331       .  A
C2793      C2973   1.467       .  S
C2795      C2953   1.489       .  S
C2795      N2796   1.358       .  A
Zn2797     O2801   1.977       .  S
Zn2797     O2813   2.103       .  S
Zn2798     O2801   2.000       .  S
Zn2798     O2803   2.095       .  S
Zn2798     O2805   2.033       .  S
Zn2798     O2809   2.120       .  S
Zn2799     O2804   2.016       .  S
Zn2799     O2807   2.083       .  S
Zn2800     O2801   1.932       .  S
Zn2800     O2808   1.996       .  S
Zn2800     O2811   1.993       .  S
Zn2800     O2812   2.081       .  S
O2804      C2816   1.275       .  A
O2805      C2814   1.282       .  A
O2806      C2816   1.275       .  A
O2807      C2815   1.277       .  A
O2808      C2817   1.276       .  A
O2809      C2818   1.284       .  A
O2810      C2817   1.275       .  A
O2811      C2818   1.273       .  A
O2812      C2819   1.278       .  A
O2813      C2819   1.281       .  A
C2815      C2820   1.515       .  S
C2817      C2947   1.445       .  S
C2820      C2821   1.420       .  A
C2820      C2825   1.425       .  A
C2821      C2822   1.413       .  A
C2821      H2826   1.080       .  S
C2822      C2823   1.407       .  A
C2823      C2824   1.397       .  A
C2823      H2827   1.084       .  S
C2824      C2888   1.497       .  S
C2824      C2825   1.423       .  A
C2829      C2830   1.417       .  A
C2829      C2834   1.421       .  A
C2830      C2831   1.414       .  A
C2831      C2832   1.407       .  A
C2832      C2833   1.395       .  A
C2832      H2836   1.084       .  S
C2833      C2887   1.505       .  S
C2833      C2834   1.430       .  A
C2834      H2837   1.083       .  S
Zn2838     O2842   1.931       .  S
Zn2838     O2843   2.023       .  S
Zn2838     O2847   1.983       .  S
Zn2838     O2854   2.132       .  S
Zn2839     O2842   2.047       .  S
Zn2839     O2844   2.047       .  S
Zn2839     O2846   2.061       .  S
Zn2839     O2850   2.054       .  S
Zn2840     O2842   1.976       .  S
Zn2840     O2845   1.981       .  S
Zn2840     O2848   2.103       .  S
Zn2841     O2849   1.947       .  S
Zn2841     O2852   1.962       .  S
Zn2841     O2853   2.116       .  S
O2843      C2855   1.276       .  A
O2844      C2856   1.276       .  A
O2845      C2857   1.280       .  A
O2846      C2855   1.280       .  A
O2847      C2857   1.279       .  A
O2848      C2856   1.282       .  A
O2849      C2858   1.261       .  A
O2850      C2859   1.270       .  A
O2851      C2858   1.277       .  A
O2853      C2860   1.282       .  A
C2857      C2943   1.438       .  S
C2861      C2862   1.422       .  A
C2861      C2866   1.427       .  A
C2862      C2863   1.410       .  A
C2863      C2864   1.392       .  A
C2864      C2865   1.384       .  A
C2864      H2868   1.085       .  S
C2865      C2891   1.485       .  S
C2865      C2866   1.430       .  A
Zn2870     O2874   1.994       .  S
Zn2870     O2875   2.150       .  S
Zn2870     O2879   2.149       .  S
Zn2870     O2886   2.169       .  S
Zn2871     O2874   1.985       .  S
Zn2871     O2878   1.962       .  S
Zn2872     O2874   1.996       .  S
Zn2872     O2877   1.965       .  S
Zn2873     O2874   1.986       .  S
Zn2873     O2885   1.996       .  S
O2875      C2887   1.291       .  A
O2876      C2888   1.277       .  A
O2877      C2889   1.264       .  A
O2878      C2887   1.261       .  A
O2879      C2889   1.296       .  A
O2880      C2888   1.280       .  A
O2881      C2890   1.284       .  A
O2882      C2891   1.269       .  A
O2883      C2890   1.283       .  A
O2884      C2891   1.287       .  A
O2885      C2892   1.269       .  A
O2886      C2892   1.294       .  A
C2889      C2920   1.503       .  S
C2890      C2929   1.516       .  S
C2892      C2938   1.518       .  S
Zn2893     O2897   1.984       .  S
Zn2893     O2898   2.122       .  S
Zn2893     O2909   1.978       .  S
Zn2894     O2897   1.970       .  S
Zn2894     O2899   2.033       .  S
Zn2894     O2901   2.087       .  S
Zn2894     O2905   2.086       .  S
Zn2895     O2900   2.046       .  S
Zn2895     O2903   1.941       .  S
Zn2895     O2906   2.009       .  S
Zn2896     O2897   1.946       .  S
Zn2896     O2904   2.146       .  S
Zn2896     O2907   2.020       .  S
Zn2896     O2908   2.002       .  S
O2898      C2910   1.281       .  A
O2899      C2911   1.280       .  A
O2900      C2912   1.273       .  A
O2901      C2910   1.279       .  A
O2902      C2912   1.275       .  A
O2905      C2914   1.285       .  A
O2906      C2913   1.265       .  A
O2907      C2914   1.275       .  A
O2908      C2915   1.281       .  A
O2909      C2915   1.274       .  A
C2910      C2916   1.531       .  S
C2915      C2945   1.446       .  S
C2916      C2917   1.419       .  A
C2916      C2921   1.427       .  A
C2917      C2918   1.414       .  A
C2917      H2922   1.083       .  S
C2918      C2919   1.393       .  A
C2919      C2920   1.392       .  A
C2919      H2923   1.085       .  S
C2920      C2921   1.435       .  A
C2921      H2924   1.083       .  S
C2925      C2926   1.424       .  A
C2925      C2930   1.437       .  A
C2926      C2927   1.416       .  A
C2927      C2928   1.403       .  A
C2928      C2929   1.400       .  A
C2928      H2932   1.085       .  S
C2929      C2930   1.433       .  A
C2934      C2935   1.414       .  A
C2934      C2939   1.418       .  A
C2935      C2936   1.413       .  A
C2936      C2937   1.422       .  A
C2937      C2938   1.406       .  A
C2937      H2941   1.083       .  S
C2938      C2939   1.425       .  A
C2939      H2942   1.083       .  S
C2943      N2944   1.347       .  A
C2943      N2948   1.351       .  A
N2944      C2945   1.346       .  A
C2945      N2946   1.357       .  A
N2946      C2947   1.357       .  A
C2947      N2948   1.352       .  A
C2949      C2950   1.435       .  A
C2949      C2954   1.405       .  A
C2949     Br2956   1.932       .  S
C2950      C2951   1.425       .  A
C2951      C2952   1.416       .  A
C2952      C2953   1.407       .  A
C2952     Br2957   1.932       .  S
C2953      C2954   1.390       .  A
C2959      C2960   1.427       .  A
C2959      C2964   1.400       .  A
C2959     Br2966   1.937       .  S
C2961     Br2968   1.936       .  S
C2962      C2963   1.411       .  A
C2963      C2964   1.394       .  A
C2964     Br2965   1.925       .  S
C2969     Br2976   1.930       .  S
C2970      C2971   1.409       .  A
C2971      C2972   1.401       .  A
C2971     Br2978   1.924       .  S
C2972      C2973   1.405       .  A
C2972     Br2977   1.927       .  S
C2973      C2974   1.418       .  A
C2979      C2980   1.404       .  A
C2979      C2984   1.413       .  A
C2979     Br2986   1.910       .  S
C2980      C2981   1.394       .  A
C2981      C2982   1.414   1_545  A
C2982      C2983   1.443       .  A
C2982     Br2987   1.929       .  S
C2983      C2984   1.420   1_565  A
C2984     Br2985   1.927       .  S
C2989      C2990   1.391       .  A
C2989      C2994   1.408       .  A
C2990      C2991   1.411       .  A
C2991      C2992   1.417       .  A
C2991     Br2998   1.915       .  S
C2992      C2993   1.420       .  A
C2992     Br2997   1.919       .  S
C2993      C2994   1.431       .  A
C2994     Br2995   1.906       .  S
C2999      C3000   1.403   1_545  A
C2999      C3004   1.400   1_545  A
C2999     Br3006   1.921       .  S
C3000      C3001   1.404       .  A
C3001      C3002   1.393       .  A
C3002      C3003   1.409       .  A
C3002     Br3007   1.934       .  S
C3003      C3004   1.405       .  A
C3004     Br3005   1.927   1_565  S
