geometry optimzed in LAMMPS
_audit_creation_date              2020-11-30 
_audit_creation_method            'lammps2cif' 
_symmetry_space_group_name_H-M    'P1' 
_symmetry_Int_Tables_number       1 
_symmetry_cell_setting            triclinic 
loop_ 
_symmetry_equiv_pos_as_xyz 
  x,y,z 
_cell_length_a                    29.21094839 
_cell_length_b                    29.215901839691316 
_cell_length_c                    87.60283613451233 
_cell_angle_alpha                 89.82611440466003 
_cell_angle_beta                  90.0786616007181 
_cell_angle_gamma                 119.9912684195306 
loop_ 
_atom_site_label 
_atom_site_type_symbol 
_atom_site_fract_x 
_atom_site_fract_y 
_atom_site_fract_z 
_atom_site_charge 
O1          O  0.95455337  0.96994848  0.27329146    -0.72500
O2          O  0.95715869  0.97167181  0.22742334    -0.73500
O3          O  0.95818571  0.90386353  0.25049108    -0.62100
O4          O  0.95322964  0.03893659  0.25028909    -0.70500
O5          O  0.04096138  0.08426620  0.24985696    -0.70100
O6          O  0.04585718  0.94947279  0.25160712    -0.61300
O7          O  0.04492835  0.01532182  0.22790948    -0.73800
O8          O  0.04217456  0.01915201  0.27354185    -0.72600
Cu9        Cu  0.95264880  0.96952187  0.25035889     1.04600
Cu10       Cu  0.04651421  0.01866967  0.25074822     1.04300
C11         C  0.99811387  0.99451204  0.28058447     0.93700
C12         C  0.00154327  0.99318402  0.22046482     0.92800
C13         C  0.00260362  0.90534710  0.25117562     0.85000
C14         C  0.99660221  0.08300474  0.24992824     0.91200
O15         O  0.04764859  0.51638832  0.22724303    -0.72500
O16         O  0.04656743  0.51650976  0.27316813    -0.73500
O17         O  0.04254520  0.44537821  0.25030277    -0.62100
O18         O  0.05152217  0.58732995  0.25006498    -0.70500
O19         O  0.96381623  0.54668536  0.24969372    -0.70100
O20         O  0.95486773  0.40524261  0.25042138    -0.61300
O21         O  0.95892047  0.47689398  0.27288236    -0.73800
O22         O  0.95992602  0.47543071  0.22721164    -0.72600
Cu23       Cu  0.05021102  0.51777499  0.25020516     1.04600
Cu24       Cu  0.95638458  0.47470884  0.25004651     1.04300
C25         C  0.00381001  0.49577818  0.22002189     0.93700
C26         C  0.00247153  0.49699974  0.28022846     0.92800
C27         C  0.99746539  0.40309242  0.25037504     0.85000
C28         C  0.00869455  0.58910170  0.24984367     0.91200
O29         O  0.45921508  0.98642969  0.22743809    -0.72500
O30         O  0.45813268  0.98253994  0.27323066    -0.73500
O31         O  0.45958799  0.05417295  0.25074378    -0.62100
O32         O  0.45811782  0.91588652  0.24986661    -0.70500
O33         O  0.54588367  0.95924796  0.25044885    -0.70100
O34         O  0.54734202  0.09720022  0.25028495    -0.61300
O35         O  0.54590013  0.02824245  0.27334299    -0.73800
O36         O  0.54696083  0.02835596  0.22742884    -0.72600
Cu37       Cu  0.45568602  0.98330449  0.25032234     1.04600
Cu38       Cu  0.54959498  0.02977141  0.25039548     1.04300
C39         C  0.50308735  0.00740603  0.22021801     0.93700
C40         C  0.50186943  0.00495981  0.28049011     0.92800
C41         C  0.50376480  0.09746711  0.25050786     0.85000
C42         C  0.50185977  0.91590356  0.25004447     0.91200
O43         O  0.55028883  0.53176450  0.27292661    -0.72500
O44         O  0.54890396  0.52801468  0.22717395    -0.73500
O45         O  0.55072871  0.59901202  0.24951019    -0.62100
O46         O  0.54825052  0.46027823  0.25056184    -0.70500
O47         O  0.46048411  0.41770414  0.25067068    -0.70100
O48         O  0.46294991  0.55616008  0.24981470    -0.61300
O49         O  0.46113651  0.48563947  0.22731990    -0.73800
O50         O  0.46250657  0.48827953  0.27318651    -0.72600
Cu51       Cu  0.55261576  0.53123592  0.25004036     1.04600
Cu52       Cu  0.45869502  0.48544875  0.25026064     1.04300
C53         C  0.50665217  0.51066270  0.28025978     0.93700
C54         C  0.50487004  0.50643749  0.22004098     0.92800
C55         C  0.50714878  0.59933291  0.24951531     0.85000
C56         C  0.50393814  0.41715774  0.25070938     0.91200
O57         O  0.01896303  0.04046055  0.43933303    -0.72500
O58         O  0.01792072  0.03555398  0.39361515    -0.73500
O59         O  0.94917725  0.03671349  0.41623128    -0.62100
O60         O  0.08801976  0.03992618  0.41669739    -0.70500
O61         O  0.04511818  0.95217849  0.41726330    -0.70100
O62         O  0.90586450  0.94900018  0.41713871    -0.61300
O63         O  0.97399978  0.94778152  0.39438330    -0.73800
O64         O  0.97676395  0.95270047  0.43999850    -0.72600
Cu65       Cu  0.01998272  0.04123881  0.41643481     1.04600
Cu66       Cu  0.97396624  0.94733346  0.41722823     1.04300
C67         C  0.99806498  0.99712897  0.44684629     0.93700
C68         C  0.99570708  0.99096355  0.38682008     0.92800
C69         C  0.90579287  0.99266499  0.41658140     0.85000
C70         C  0.08837843  0.99643786  0.41709809     0.91200
O71         O  0.02596451  0.54124116  0.43969152    -0.72500
O72         O  0.02683700  0.54152478  0.39386025    -0.73500
O73         O  0.95937754  0.54585759  0.41669775    -0.62100
O74         O  0.09222274  0.53690834  0.41685135    -0.70500
O75         O  0.04505589  0.44925220  0.41619249    -0.70100
O76         O  0.91241045  0.45818710  0.41715366    -0.61300
O77         O  0.97661655  0.45401439  0.39375234    -0.73800
O78         O  0.97984210  0.45351527  0.43957460    -0.72600
Cu79       Cu  0.02775082  0.54446499  0.41676726     1.04600
Cu80       Cu  0.97680131  0.45066944  0.41666861     1.04300
C81         C  0.00305044  0.49721331  0.44684388     0.93700
C82         C  0.00178965  0.49793333  0.38663110     0.92800
C83         C  0.91479380  0.50305535  0.41700423     0.85000
C84         C  0.08969378  0.49200825  0.41648152     0.91200
O85         O  0.54104358  0.94874492  0.41626028    -0.72500
O86         O  0.40787865  0.95668071  0.41805295    -0.73500
O87         O  0.47071541  0.95179501  0.39425307    -0.62100
O88         O  0.47753271  0.95344408  0.43999141    -0.70500
O89         O  0.52195077  0.04122269  0.43978806    -0.70100
O90         O  0.52115146  0.03924643  0.39398269    -0.61300
O91         O  0.45475925  0.04431064  0.41693055    -0.73800
O92         O  0.58811329  0.03640897  0.41681634    -0.72600
Cu93       Cu  0.47263191  0.94959143  0.41715363     1.04600
Cu94       Cu  0.52316970  0.04338588  0.41686226     1.04300
C95         C  0.58565984  0.99154471  0.41636145     0.93700
C96         C  0.41025499  0.00152317  0.41769177     0.92800
C97         C  0.49548049  0.99535860  0.38692644     0.85000
C98         C  0.50011430  0.99747125  0.44708797     0.91200
O99         O  0.55507726  0.46382652  0.41640706    -0.72500
O100        O  0.41405939  0.45672947  0.41664299    -0.73500
O101        O  0.48385562  0.46194160  0.39361372    -0.62100
O102        O  0.48385197  0.45860734  0.43944042    -0.70500
O103        O  0.52621781  0.54637718  0.43982769    -0.70100
O104        O  0.52769692  0.54974992  0.39405697    -0.61300
O105        O  0.45596793  0.54446294  0.41688897    -0.73800
O106        O  0.59675767  0.55152990  0.41701576    -0.72600
Cu107      Cu  0.48289727  0.45717384  0.41650859     1.04600
Cu108      Cu  0.52798465  0.55107983  0.41696511     1.04300
C109        C  0.59792430  0.50845651  0.41675815     0.93700
C110        C  0.41303726  0.49987481  0.41671671     0.92800
C111        C  0.50552240  0.50637056  0.38666047     0.85000
C112        C  0.50512243  0.50204302  0.44682451     0.91200
O113        O  0.05465230  0.02437021  0.06134543    -0.72500
O114        O  0.04843248  0.02113247  0.10713626    -0.73500
O115        O  0.05102127  0.95389638  0.08423330    -0.62100
O116        O  0.05099494  0.09172573  0.08416167    -0.70500
O117        O  0.96322397  0.04799072  0.08369796    -0.70100
O118        O  0.96336592  0.91105999  0.08293760    -0.61300
O119        O  0.96070863  0.97679859  0.10628559    -0.73800
O120        O  0.96696572  0.98348857  0.06043741    -0.72600
Cu121      Cu  0.05438311  0.02438417  0.08426844     1.04600
Cu122      Cu  0.96052489  0.97826426  0.08331190     1.04300
C123        C  0.01174540  0.00485212  0.05370111     0.93700
C124        C  0.00376622  0.99809169  0.11392113     0.92800
C125        C  0.00688222  0.91070087  0.08353852     0.85000
C126        C  0.00705358  0.09144208  0.08384965     0.91200
O127        O  0.04854914  0.51916156  0.10600958    -0.72500
O128        O  0.04479457  0.51904914  0.06029468    -0.73500
O129        O  0.04894977  0.58937082  0.08342646    -0.62100
O130        O  0.04398840  0.44967584  0.08285017    -0.70500
O131        O  0.95623115  0.40794476  0.08272061    -0.70100
O132        O  0.96129410  0.54786599  0.08452475    -0.61300
O133        O  0.95720274  0.48051138  0.06071003    -0.73800
O134        O  0.96079164  0.47595692  0.10658114    -0.72600
Cu135      Cu  0.04960568  0.52082125  0.08312499     1.04600
Cu136      Cu  0.95575857  0.47659987  0.08366440     1.04300
C137        C  0.00524795  0.49708980  0.11349942     0.93700
C138        C  0.00062017  0.49983163  0.05331131     0.92800
C139        C  0.00587084  0.59060689  0.08410928     0.85000
C140        C  0.99945076  0.40689712  0.08259394     0.91200
O141        O  0.46021629  0.05648287  0.08429793    -0.72500
O142        O  0.45579406  0.91709977  0.08337162    -0.73500
O143        O  0.46056163  0.98653560  0.10674013    -0.62100
O144        O  0.45548416  0.98786332  0.06086946    -0.70500
O145        O  0.54304036  0.02616263  0.06017792    -0.70100
O146        O  0.54830100  0.03001020  0.10602359    -0.61300
O147        O  0.54354200  0.95873726  0.08331179    -0.73800
O148        O  0.54784244  0.09840402  0.08289599    -0.72600
Cu149      Cu  0.45494330  0.98551207  0.08384697     1.04600
Cu150      Cu  0.54876693  0.02986062  0.08306553     1.04300
C151        C  0.50460883  0.09933580  0.08364470     0.93700
C152        C  0.49897428  0.91596666  0.08334821     0.92800
C153        C  0.50512708  0.00837277  0.11359571     0.85000
C154        C  0.49857018  0.00665754  0.05333251     0.91200
O155        O  0.45297528  0.41470996  0.08297661    -0.72500
O156        O  0.45395952  0.55295681  0.08396292    -0.73500
O157        O  0.45256552  0.48546482  0.06057591    -0.62100
O158        O  0.45343957  0.48218014  0.10633926    -0.70500
O159        O  0.54122279  0.52596082  0.10630363    -0.70100
O160        O  0.54031001  0.52658997  0.06041978    -0.61300
O161        O  0.54171557  0.59563833  0.08352355    -0.73800
O162        O  0.54075967  0.45811947  0.08316342    -0.72600
Cu163      Cu  0.45013273  0.48227782  0.08346906     1.04600
Cu164      Cu  0.54405344  0.52814866  0.08334749     1.04300
C165        C  0.49680846  0.41477908  0.08297787     0.93700
C166        C  0.49823564  0.59611256  0.08383452     0.92800
C167        C  0.49627907  0.50615953  0.05329934     0.85000
C168        C  0.49734823  0.50362662  0.11352932     0.91200
O169        O  0.09545907  0.05333834  0.91651925    -0.72500
O170        O  0.95825957  0.91543042  0.91741438    -0.73500
O171        O  0.02551894  0.98355457  0.89409880    -0.62100
O172        O  0.02937810  0.98571073  0.93993305    -0.70500
O173        O  0.98316973  0.02724777  0.94008021    -0.70100
O174        O  0.98252437  0.02833030  0.89416125    -0.61300
O175        O  0.91449005  0.95943640  0.91715499    -0.73800
O176        O  0.05139594  0.09703298  0.91711203    -0.72600
Cu177      Cu  0.02866940  0.98295057  0.91699185     1.04600
Cu178      Cu  0.98136089  0.02955052  0.91714280     1.04300
C179        C  0.09499200  0.09683555  0.91673453     0.93700
C180        C  0.91471133  0.91583985  0.91727671     0.92800
C181        C  0.00374417  0.00575236  0.88691313     0.85000
C182        C  0.00672455  0.00669589  0.94721568     0.91200
O183        O  0.94340934  0.40266045  0.91744715    -0.72500
O184        O  0.08152486  0.53980795  0.91638372    -0.73500
O185        O  0.01459721  0.47319792  0.93981602    -0.62100
O186        O  0.01086986  0.47021641  0.89394352    -0.70500
O187        O  0.96866266  0.51578435  0.89411551    -0.70100
O188        O  0.96888309  0.51527983  0.93973101    -0.61300
O189        O  0.03789630  0.58394996  0.91689670    -0.73800
O190        O  0.90022304  0.44724302  0.91701502    -0.72600
Cu191      Cu  0.01410742  0.46982154  0.91688604     1.04600
Cu192      Cu  0.96742661  0.51707985  0.91693164     1.04300
C193        C  0.90006735  0.40345706  0.91736657     0.93700
C194        C  0.08135859  0.58344945  0.91662143     0.92800
C195        C  0.99208759  0.49464596  0.94695915     0.85000
C196        C  0.98955251  0.49305056  0.88683192     0.91200
O197        O  0.57840178  0.04137277  0.91713459    -0.72500
O198        O  0.43980372  0.90604318  0.91671180    -0.73500
O199        O  0.51008160  0.97416501  0.89398325    -0.62100
O200        O  0.50825569  0.97410456  0.93987772    -0.70500
O201        O  0.46525680  0.01887935  0.93946270    -0.70100
O202        O  0.46770433  0.01956151  0.89373298    -0.61300
O203        O  0.39690946  0.95092092  0.91633883    -0.73800
O204        O  0.53631226  0.08704881  0.91687630    -0.72600
Cu205      Cu  0.51055393  0.97229007  0.91693378     1.04600
Cu206      Cu  0.46502998  0.02068349  0.91658384     1.04300
C207        C  0.57926217  0.08548632  0.91715494     0.93700
C208        C  0.39660192  0.90700470  0.91643721     0.92800
C209        C  0.48920679  0.99699875  0.88665499     0.85000
C210        C  0.48679223  0.99688806  0.94687802     0.91200
O211        O  0.45572610  0.41636998  0.91771724    -0.72500
O212        O  0.59494892  0.55172148  0.91634880    -0.73500
O213        O  0.52691206  0.48760218  0.93995031    -0.62100
O214        O  0.52394534  0.48070028  0.89416668    -0.70500
O215        O  0.48376689  0.52819956  0.89362085    -0.70100
O216        O  0.48155919  0.53003360  0.93942031    -0.61300
O217        O  0.55265876  0.59719565  0.91646116    -0.73800
O218        O  0.41339434  0.46173958  0.91657015    -0.72600
Cu219      Cu  0.52686823  0.48249673  0.91708267     1.04600
Cu220      Cu  0.48143361  0.53095286  0.91649176     1.04300
C221        C  0.41271003  0.41772252  0.91718098     0.93700
C222        C  0.59568440  0.59580707  0.91631071     0.92800
C223        C  0.50429384  0.50936779  0.94687675     0.85000
C224        C  0.50339443  0.50356024  0.88669398     0.91200
O225        O  0.96864209  0.94902582  0.56052756    -0.72500
O226        O  0.97297306  0.95121945  0.60632168    -0.73500
O227        O  0.90277601  0.95207226  0.58375205    -0.62100
O228        O  0.03807390  0.94805781  0.58294001    -0.70500
O229        O  0.08323591  0.03581349  0.58295562    -0.70100
O230        O  0.94776180  0.03980740  0.58304124    -0.61300
O231        O  0.01612844  0.03898068  0.60597160    -0.73800
O232        O  0.01429318  0.03678795  0.56014876    -0.72600
Cu233      Cu  0.96893770  0.94702988  0.58341140     1.04600
Cu234      Cu  0.01698889  0.04093262  0.58301907     1.04300
C235        C  0.99102609  0.99262180  0.55314639     0.93700
C236        C  0.99533633  0.99540265  0.61335424     0.92800
C237        C  0.90386835  0.99635223  0.58335209     0.85000
C238        C  0.08204633  0.99147817  0.58287618     0.91200
O239        O  0.01995372  0.53562799  0.60686453    -0.72500
O240        O  0.02647480  0.54124775  0.56103258    -0.73500
O241        O  0.95545822  0.53981057  0.58347791    -0.62100
O242        O  0.09139928  0.53675062  0.58446927    -0.70500
O243        O  0.04703475  0.44911703  0.58315224    -0.70100
O244        O  0.91108026  0.45205373  0.58333411    -0.61300
O245        O  0.98021999  0.45357864  0.56029261    -0.73800
O246        O  0.97860143  0.44790259  0.60616520    -0.72600
Cu247      Cu  0.02498451  0.54143798  0.58398850     1.04600
Cu248      Cu  0.97761561  0.44759048  0.58319846     1.04300
C249        C  0.99855459  0.49100774  0.61369675     0.93700
C250        C  0.00390583  0.49820492  0.55344807     0.92800
C251        C  0.91174002  0.49614408  0.58339565     0.85000
C252        C  0.09070551  0.49267232  0.58388232     0.91200
O253        O  0.51617524  0.04571689  0.60641691    -0.72500
O254        O  0.51858064  0.04593060  0.56070419    -0.73500
O255        O  0.44784153  0.04287749  0.58319401    -0.62100
O256        O  0.58793456  0.04832812  0.58387924    -0.70500
O257        O  0.54617722  0.96059004  0.58356685    -0.70100
O258        O  0.40614658  0.95515153  0.58348830    -0.61300
O259        O  0.47666904  0.95816930  0.56064793    -0.73800
O260        O  0.47706270  0.95806277  0.60647759    -0.72600
Cu261      Cu  0.51913020  0.04878134  0.58355183     1.04600
Cu262      Cu  0.47502540  0.95489813  0.58355556     1.04300
C263        C  0.49638789  0.00187858  0.61362588     0.93700
C264        C  0.49775212  0.00218253  0.55348185     0.92800
C265        C  0.40501943  0.99830229  0.58324721     0.85000
C266        C  0.58897014  0.00509662  0.58373696     0.91200
O267        O  0.52277622  0.53780070  0.56020235    -0.72500
O268        O  0.52070159  0.54029517  0.60598981    -0.73500
O269        O  0.59256639  0.54323319  0.58348410    -0.62100
O270        O  0.45092506  0.53454370  0.58268276    -0.70500
O271        O  0.41039963  0.44693938  0.58394088    -0.70100
O272        O  0.55177241  0.45555231  0.58302340    -0.61300
O273        O  0.48331528  0.45283869  0.60642616    -0.73800
O274        O  0.47884152  0.45001229  0.56059192    -0.72600
Cu275      Cu  0.52312238  0.54205776  0.58306875     1.04600
Cu276      Cu  0.47973525  0.44826713  0.58351565     1.04300
C277        C  0.50076350  0.49360716  0.55320480     0.93700
C278        C  0.50192483  0.49693471  0.61341584     0.92800
C279        C  0.59426826  0.50038623  0.58320638     0.85000
C280        C  0.40854207  0.48965048  0.58335000     0.91200
O281        O  0.02921620  0.98137287  0.72699175    -0.72500
O282        O  0.03078668  0.98065079  0.77297286    -0.73500
O283        O  0.96215335  0.91232415  0.74998673    -0.62100
O284        O  0.09885344  0.05079416  0.75002109    -0.70500
O285        O  0.05431896  0.09400085  0.75064050    -0.70100
O286        O  0.91783790  0.95579265  0.74976664    -0.61300
O287        O  0.98528600  0.02289456  0.77314887    -0.83400
O288        O  0.98737615  0.02728045  0.72726805    -0.72600
Cu289      Cu  0.03191683  0.97984835  0.74997952     1.04600
Cu290      Cu  0.98464934  0.02647501  0.75022073     1.04300
C291        C  0.00810069  0.00447055  0.71991599     0.93700
C292        C  0.00774873  0.00125808  0.78028384     0.92800
C293        C  0.91845788  0.91237637  0.74976581     0.85000
C294        C  0.09808549  0.09416187  0.75043857     0.91200
O295        O  0.94357223  0.40368343  0.75007221    -0.72500
O296        O  0.08219014  0.53958242  0.75052634    -0.73500
O297        O  0.01206996  0.47067753  0.77313101    -0.62100
O298        O  0.01353972  0.47211726  0.72740007    -0.70500
O299        O  0.97099591  0.51734305  0.72731713    -0.70100
O300        O  0.96958640  0.51597092  0.77323219    -0.61300
O301        O  0.03976556  0.58492457  0.75051651    -0.73800
O302        O  0.90094852  0.44884552  0.75008291    -0.72600
Cu303      Cu  0.01435282  0.46999590  0.75028457     1.04600
Cu304      Cu  0.96884378  0.51840835  0.75028093     1.04300
C305        C  0.90046831  0.40487723  0.75003345     0.93700
C306        C  0.08283214  0.58363246  0.75060274     0.92800
C307        C  0.99057985  0.49290849  0.78038382     0.85000
C308        C  0.99218807  0.49458825  0.72014605     0.91200
O309        O  0.40263682  0.94699303  0.74977016    -0.72500
O310        O  0.54014332  0.08401312  0.75057634    -0.73500
O311        O  0.47268913  0.01734864  0.72723149    -0.62100
O312        O  0.47049031  0.01407123  0.77304002    -0.70500
O313        O  0.51427392  0.97005450  0.77299950    -0.70100
O314        O  0.51493490  0.97182039  0.72722292    -0.61300
O315        O  0.58349512  0.03957917  0.75034777    -0.73800
O316        O  0.44570749  0.90228717  0.74990695    -0.72600
Cu317      Cu  0.46991803  0.01709571  0.75015339     1.04600
Cu318      Cu  0.51614097  0.96938275  0.75010758     1.04300
C319        C  0.40242019  0.90314299  0.74978842     0.93700
C320        C  0.58349324  0.08332172  0.75058895     0.92800
C321        C  0.49410257  0.99495736  0.72002424     0.85000
C322        C  0.49237888  0.99196752  0.78021949     0.91200
O323        O  0.45505813  0.41763977  0.75035446    -0.72500
O324        O  0.59434783  0.55296200  0.74980215    -0.73500
O325        O  0.52467511  0.48521952  0.77302768    -0.62100
O326        O  0.52326520  0.48413557  0.72712354    -0.70500
O327        O  0.48377647  0.53231174  0.72704516    -0.70100
O328        O  0.48186931  0.53018813  0.77288226    -0.61300
O329        O  0.55207569  0.59844124  0.75013993    -0.73800
O330        O  0.41268713  0.46302655  0.74976858    -0.72600
Cu331      Cu  0.52590323  0.48346792  0.75007610     1.04600
Cu332      Cu  0.48113396  0.53258907  0.74996301     1.04300
C333        C  0.41204421  0.41895787  0.75014189     0.93700
C334        C  0.59508250  0.59705698  0.74987105     0.92800
C335        C  0.50281447  0.50732078  0.78016754     0.85000
C336        C  0.50349115  0.50819361  0.71988464     0.91200
C337        C  0.68724942  0.21453690  0.75076912     0.30200
C338        C  0.71067786  0.26977975  0.75061859    -0.36100
C339        C  0.76609080  0.29823727  0.75033573     0.16200
C340        C  0.79633164  0.27401753  0.75023040     0.22000
C341        C  0.77291824  0.21882683  0.75039203    -0.34200
C342        C  0.71755474  0.19039142  0.75066494     0.16100
O343        O  0.63614128  0.18019279  0.75086519    -0.26300
C344        C  0.63376115  0.13350030  0.75081106     0.05900
C345        C  0.68318948  0.13741061  0.75072227    -0.31100
O346        O  0.84742943  0.30821518  0.75003215    -0.23000
C347        C  0.84998316  0.35495547  0.75000912    -0.03000
C348        C  0.80061052  0.35123471  0.75017273    -0.17400
H349        H  0.68736513  0.28917744  0.75068158     0.20600
H350        H  0.79623133  0.19943164  0.75029141     0.19000
H351        H  0.69237393  0.10582267  0.75058248     0.18900
H352        H  0.79157458  0.38292786  0.75024849     0.14800
C353        C  0.18814047  0.71417111  0.75061384     0.30200
C354        C  0.21234868  0.76945192  0.75050246    -0.36100
C355        C  0.26775012  0.79717953  0.75017793     0.16200
C356        C  0.29740400  0.77234076  0.74999622     0.22000
C357        C  0.27318498  0.71702555  0.75012011    -0.34200
C358        C  0.21774834  0.68928025  0.75043707     0.16100
O359        O  0.13685613  0.68048332  0.75078015    -0.26300
C360        C  0.13358820  0.63339892  0.75071143     0.05900
C361        C  0.18265587  0.63644043  0.75052484    -0.31100
O362        O  0.34869329  0.80612691  0.74975923    -0.23000
C363        C  0.35183419  0.85317497  0.74977865    -0.03000
C364        C  0.30272918  0.85000333  0.75002326    -0.17400
H365        H  0.18959837  0.78943825  0.75063203     0.20600
H366        H  0.29593299  0.69703772  0.74996797     0.19000
H367        H  0.19113906  0.60437578  0.75036623     0.18900
H368        H  0.29414129  0.88199837  0.75015326     0.14800
C369        C  0.72700523  0.69974366  0.74903810     0.30200
C370        C  0.78224138  0.72285742  0.74889189    -0.36100
C371        C  0.81106259  0.77829604  0.74899794     0.16200
C372        C  0.78719433  0.80886651  0.74916359     0.22000
C373        C  0.73204739  0.78578745  0.74921999    -0.34200
C374        C  0.70328110  0.73044149  0.74918441     0.16100
O375        O  0.69228823  0.64868147  0.74924938    -0.26300
C376        C  0.64582164  0.64681142  0.74955125     0.05900
C377        C  0.65028481  0.69646956  0.74949808    -0.31100
O378        O  0.82166274  0.85989690  0.74943773    -0.23000
C379        C  0.86825270  0.86210849  0.74946119    -0.03000
C380        C  0.86412886  0.81255926  0.74917827    -0.17400
H381        H  0.80139258  0.69929632  0.74884436     0.20600
H382        H  0.71289833  0.80934525  0.74942189     0.19000
H383        H  0.61897840  0.70607197  0.74973649     0.18900
H384        H  0.89563332  0.80323204  0.74917687     0.14800
C385        C  0.30899312  0.28771598  0.75140643     0.30200
C386        C  0.28650637  0.23267386  0.75216798    -0.36100
C387        C  0.23121884  0.20324631  0.75157303     0.16200
C388        C  0.20011288  0.22636294  0.75040603     0.22000
C389        C  0.22262900  0.28152210  0.74969991    -0.34200
C390        C  0.27802988  0.31099394  0.75022254     0.16100
O391        O  0.35987934  0.32256196  0.75153136    -0.26300
C392        C  0.36169846  0.36884358  0.75042066     0.05900
C393        C  0.31195390  0.36418280  0.74958669    -0.31100
O394        O  0.14925375  0.19116424  0.74990205    -0.23000
C395        C  0.14784917  0.14495896  0.75070170    -0.03000
C396        C  0.19768633  0.15005703  0.75176780    -0.17400
H397        H  0.31048437  0.21409311  0.75303360     0.20600
H398        H  0.19867606  0.30009553  0.74870064     0.19000
H399        H  0.30231074  0.39533783  0.74857571     0.18900
H400        H  0.20767907  0.11909800  0.75253872     0.14800
C401        C  0.50514838  0.52483087  0.65242216     0.30200
C402        C  0.50935662  0.55503327  0.66534182    -0.36100
C403        C  0.50531248  0.53078937  0.67952014     0.16200
C404        C  0.49849554  0.48064919  0.68087681     0.22000
C405        C  0.49333978  0.45015256  0.66797369    -0.34200
C406        C  0.49666855  0.47408834  0.65381818     0.16100
O407        O  0.50849378  0.53982605  0.63805136    -0.26300
C408        C  0.50148369  0.49790674  0.63017153     0.05900
C409        C  0.49367204  0.45576670  0.63937983    -0.31100
O410        O  0.49754332  0.46634193  0.69520832    -0.23000
C411        C  0.50291665  0.50745750  0.70314670    -0.03000
C412        C  0.50760800  0.54862742  0.69401505    -0.17400
H413        H  0.51554526  0.59469290  0.66440536     0.20600
H414        H  0.48741772  0.41059483  0.66890851     0.19000
H415        H  0.48741946  0.41751514  0.63592051     0.18900
H416        H  0.51287355  0.58642866  0.69756225     0.14800
C417        C  0.48752514  0.01541836  0.68084261     0.30200
C418        C  0.47959083  0.03819958  0.66770436    -0.36100
C419        C  0.48803381  0.02026062  0.65372944     0.16200
C420        C  0.50217479  0.98177422  0.65275089     0.22000
C421        C  0.51076383  0.95954433  0.66587290    -0.34200
C422        C  0.50320366  0.97810632  0.67982889     0.16100
O423        O  0.48192752  0.02622236  0.69509593    -0.26300
C424        C  0.49471639  0.99578347  0.70327660     0.05900
C425        C  0.50846559  0.96517145  0.69438749    -0.31100
O426        O  0.50652370  0.96983144  0.63853606    -0.23000
C427        C  0.49598107  0.00176653  0.63032196    -0.03000
C428        C  0.48450400  0.03427080  0.63912356    -0.17400
H429        H  0.46783971  0.06787445  0.66833339     0.20600
H430        H  0.52254312  0.92989205  0.66524424     0.19000
H431        H  0.52017078  0.93716948  0.69812670     0.18900
H432        H  0.47415825  0.06318817  0.63528709     0.14800
C433        C  0.80832814  0.52446493  0.58386268     0.30200
C434        C  0.78480755  0.55626270  0.58433885    -0.36100
C435        C  0.72934380  0.52938525  0.58372413     0.16200
C436        C  0.69927808  0.47503656  0.58274733     0.22000
C437        C  0.72273454  0.44335754  0.58230266    -0.34200
C438        C  0.77801156  0.47014644  0.58290049     0.16100
O439        O  0.85944700  0.54102014  0.58417105    -0.26300
C440        C  0.86169896  0.49665850  0.58340814     0.05900
C441        C  0.81223454  0.45139968  0.58262497    -0.31100
O442        O  0.64820224  0.45800336  0.58237777    -0.23000
C443        C  0.64526530  0.50189413  0.58312004    -0.03000
C444        C  0.69452542  0.54763606  0.58395093    -0.17400
H445        H  0.80808282  0.59889265  0.58510541     0.20600
H446        H  0.69945554  0.40072743  0.58153318     0.19000
H447        H  0.80291796  0.41065172  0.58188966     0.18900
H448        H  0.70328623  0.58820547  0.58470222     0.14800
C449        C  0.19408216  0.46431963  0.58420284     0.30200
C450        C  0.21776178  0.43263365  0.58439308    -0.36100
C451        C  0.27326579  0.45978599  0.58402960     0.16200
C452        C  0.30316826  0.51425566  0.58350776     0.22000
C453        C  0.27956161  0.54576275  0.58336830    -0.34200
C454        C  0.22431455  0.51874943  0.58375026     0.16100
O455        O  0.14292968  0.44764982  0.58433621    -0.26300
C456        C  0.14066613  0.49207584  0.58400650     0.05900
C457        C  0.19008141  0.53743045  0.58365685    -0.31100
O458        O  0.35427354  0.53159230  0.58317084    -0.23000
C459        C  0.35744542  0.48781121  0.58349111    -0.03000
C460        C  0.30829945  0.44180562  0.58404029    -0.17400
H461        H  0.19458151  0.38989542  0.58475558     0.20600
H462        H  0.30274246  0.58849357  0.58295796     0.19000
H463        H  0.19937300  0.57823834  0.58327592     0.18900
H464        H  0.29974632  0.40122663  0.58438963     0.14800
C465        C  0.00425402  0.47759527  0.68105780     0.30200
C466        C  0.01887623  0.45981305  0.66808239    -0.36100
C467        C  0.00664149  0.47380952  0.65395534     0.16200
C468        C  0.98245825  0.50393896  0.65269430     0.22000
C469        C  0.96715445  0.52103807  0.66566192    -0.34200
C470        C  0.97892677  0.50661746  0.67977646     0.16100
O471        O  0.01238852  0.46963065  0.69538693    -0.26300
C472        C  0.99186013  0.49373433  0.70337794     0.05900
C473        C  0.97029226  0.51725661  0.69426868    -0.31100
O474        O  0.97660195  0.51415719  0.63838651    -0.23000
C475        C  0.99642001  0.48946387  0.63039475    -0.03000
C476        C  0.01543246  0.46343049  0.63943217    -0.17400
H477        H  0.03862584  0.43693011  0.66894243     0.20600
H478        H  0.94785203  0.54434338  0.66480475     0.19000
H479        H  0.95136692  0.53923758  0.69781815     0.18900
H480        H  0.03412851  0.44130599  0.63581044     0.14800
C481        C  0.80157289  0.02610617  0.58296249     0.30200
C482        C  0.77872846  0.05850276  0.58288106    -0.36100
C483        C  0.72329113  0.03215456  0.58323310     0.16200
C484        C  0.69260564  0.97775029  0.58358410     0.22000
C485        C  0.71539662  0.94544551  0.58363160    -0.34200
C486        C  0.77068611  0.97173033  0.58332350     0.16100
O487        O  0.85255629  0.04214053  0.58287248    -0.26300
C488        C  0.85416058  0.99739918  0.58320724     0.05900
C489        C  0.80441680  0.95238672  0.58345793    -0.31100
O490        O  0.64166216  0.96134750  0.58385825    -0.23000
C491        C  0.63950733  0.00573191  0.58370012    -0.03000
C492        C  0.68908872  0.05112472  0.58332166    -0.17400
H493        H  0.80247333  0.10117362  0.58262918     0.20600
H494        H  0.69165403  0.90277652  0.58394297     0.19000
H495        H  0.79461446  0.91143346  0.58378340     0.18900
H496        H  0.69845190  0.09194820  0.58308515     0.14800
C497        C  0.21288170  0.01796212  0.58323569     0.30200
C498        C  0.26796962  0.04976128  0.58381496    -0.36100
C499        C  0.29660870  0.02311079  0.58334974     0.16200
C500        C  0.27287436  0.96880597  0.58240390     0.22000
C501        C  0.21759175  0.93686847  0.58181577    -0.34200
C502        C  0.18884776  0.96361982  0.58228207     0.16100
O503        O  0.17865247  0.03481166  0.58352982    -0.26300
C504        C  0.13196051  0.99076288  0.58277610     0.05900
C505        C  0.13579183  0.94518514  0.58198587    -0.31100
O506        O  0.30764991  0.95246764  0.58222365    -0.23000
C507        C  0.35409677  0.99700854  0.58304490    -0.03000
C508        C  0.34954991  0.04207461  0.58374773    -0.17400
H509        H  0.28719070  0.09237972  0.58459149     0.20600
H510        H  0.19836800  0.89424046  0.58107974     0.19000
H511        H  0.10413003  0.90453109  0.58129351     0.18900
H512        H  0.38079320  0.08289444  0.58451954     0.14800
C513        C  0.00295059  0.97885574  0.68068957     0.30200
C514        C  0.99771617  0.94913721  0.66757418    -0.36100
C515        C  0.99811742  0.97282702  0.65358390     0.16200
C516        C  0.00437691  0.02280547  0.65253339     0.22000
C517        C  0.00892323  0.05224561  0.66565647    -0.34200
C518        C  0.00738727  0.02808696  0.67966347     0.16100
O519        O  0.00337555  0.96429839  0.69493880    -0.26300
C520        C  0.00723180  0.00433470  0.70314625     0.05900
C521        C  0.00954157  0.04497654  0.69426497    -0.31100
O522        O  0.00459466  0.03760937  0.63827553    -0.23000
C523        C  0.99752139  0.99622683  0.63011089    -0.03000
C524        C  0.99304632  0.95470721  0.63902442    -0.17400
H525        H  0.99328660  0.91010952  0.66823628     0.20600
H526        H  0.01299481  0.09112407  0.66499485     0.19000
H527        H  0.01288275  0.08177628  0.69804114     0.18900
H528        H  0.98752434  0.91698429  0.63528646     0.14800
C529        C  0.50817933  0.48613219  0.81938766     0.30200
C530        C  0.51783661  0.46469075  0.83254301    -0.36100
C531        C  0.50917119  0.48244613  0.84652267     0.16200
C532        C  0.49177612  0.51844483  0.84747531     0.22000
C533        C  0.48173008  0.53952526  0.83434061    -0.34200
C534        C  0.49065968  0.52201717  0.82038312     0.16100
O535        O  0.51495993  0.47623552  0.80514121    -0.26300
C536        C  0.50141566  0.50604664  0.79693252     0.05900
C537        C  0.48583326  0.53525279  0.80581008    -0.31100
O538        O  0.48719111  0.53029429  0.86167710    -0.23000
C539        C  0.50208386  0.50175987  0.86995201    -0.03000
C540        C  0.51611259  0.47110075  0.86114905    -0.17400
H541        H  0.53180759  0.43671617  0.83192233     0.20600
H542        H  0.46847560  0.56806713  0.83496489     0.19000
H543        H  0.47333364  0.56264083  0.80205892     0.18900
H544        H  0.52969183  0.44464470  0.86497560     0.14800
C545        C  0.50414418  0.98323172  0.84757405     0.30200
C546        C  0.52012849  0.96700214  0.83456802    -0.36100
C547        C  0.50655903  0.97992560  0.82049519     0.16200
C548        C  0.47921858  0.00701836  0.81929801     0.22000
C549        C  0.46336022  0.02336235  0.83229663    -0.34200
C550        C  0.47687009  0.01038664  0.84636266     0.16100
O551        O  0.51223369  0.97498192  0.86187459    -0.26300
C552        C  0.48988150  0.99717860  0.86990870     0.05900
C553        C  0.46729462  0.01985320  0.86086529    -0.31100
O554        O  0.47052213  0.01471835  0.80501340    -0.23000
C555        C  0.49252702  0.99223461  0.79695916    -0.03000
C556        C  0.51560299  0.96998425  0.80597644    -0.17400
H557        H  0.54146996  0.94563547  0.83536682     0.20600
H558        H  0.44184658  0.04455836  0.83149732     0.19000
H559        H  0.44664864  0.04010992  0.86446822     0.18900
H560        H  0.53602579  0.94953178  0.80234944     0.14800
C561        C  0.79456318  0.27289000  0.91816595     0.30200
C562        C  0.76994078  0.21753876  0.91837243    -0.36100
C563        C  0.71448626  0.19018666  0.91815945     0.16200
C564        C  0.68526229  0.21548424  0.91781517     0.22000
C565        C  0.70985720  0.27075446  0.91767975    -0.34200
C566        C  0.76523651  0.29807263  0.91784470     0.16100
O567        O  0.84593736  0.30640698  0.91807619    -0.26300
C568        C  0.84940631  0.35359327  0.91768981     0.05900
C569        C  0.80046490  0.35077938  0.91754856    -0.31100
O570        O  0.63392519  0.18219013  0.91745313    -0.23000
C571        C  0.63020334  0.13493495  0.91755002    -0.03000
C572        C  0.67903483  0.13745136  0.91801397    -0.17400
H573        H  0.79239900  0.19724781  0.91855872     0.20600
H574        H  0.68740011  0.29103505  0.91734270     0.19000
H575        H  0.79212891  0.38293608  0.91718926     0.18900
H576        H  0.68714278  0.10512857  0.91813191     0.14800
C577        C  0.18441003  0.71496001  0.91678966     0.30200
C578        C  0.20725664  0.77013679  0.91689637    -0.36100
C579        C  0.26264032  0.79919057  0.91656366     0.16200
C580        C  0.29340265  0.77556237  0.91619701     0.22000
C581        C  0.27056528  0.72038731  0.91610371    -0.34200
C582        C  0.21518589  0.69134565  0.91640680     0.16100
O583        O  0.13342468  0.68023830  0.91693891    -0.26300
C584        C  0.13150535  0.63378876  0.91663040     0.05900
C585        C  0.18118511  0.63822709  0.91631973    -0.31100
O586        O  0.34437668  0.81027853  0.91603245    -0.23000
C587        C  0.34632956  0.85675736  0.91628624    -0.03000
C588        C  0.29666047  0.85233432  0.91659351    -0.17400
H589        H  0.18351571  0.78905932  0.91719370     0.20600
H590        H  0.29430460  0.70146028  0.91580606     0.19000
H591        H  0.19075641  0.60691591  0.91602002     0.18900
H592        H  0.28710896  0.88365565  0.91690151     0.14800
C593        C  0.97742217  0.50589354  0.81962107     0.30200
C594        C  0.96276428  0.52246265  0.83281859    -0.36100
C595        C  0.97594221  0.50809794  0.84672278     0.16200
C596        C  0.00179221  0.47946913  0.84760322     0.22000
C597        C  0.01646511  0.46293162  0.83441087    -0.34200
C598        C  0.00323415  0.47723254  0.82051115     0.16100
O599        O  0.96926382  0.51509609  0.80541731    -0.26300
C600        C  0.99016571  0.49203150  0.79712818     0.05900
C601        C  0.01177989  0.46779397  0.80590559    -0.31100
O602        O  0.01007570  0.47032663  0.86179507    -0.23000
C603        C  0.98919239  0.49335562  0.87009658    -0.03000
C604        C  0.96744142  0.51752034  0.86133876    -0.17400
H605        H  0.94253605  0.54495140  0.83228527     0.20600
H606        H  0.03674737  0.44049607  0.83494551     0.19000
H607        H  0.03116890  0.44656677  0.80206549     0.18900
H608        H  0.94816638  0.53883851  0.86519746     0.14800
C609        C  0.70081828  0.72635896  0.91641678     0.30200
C610        C  0.72482927  0.78159591  0.91679472    -0.36100
C611        C  0.78023173  0.80949926  0.91684682     0.16200
C612        C  0.81007115  0.78486746  0.91652676     0.22000
C613        C  0.78603504  0.72958059  0.91610482    -0.34200
C614        C  0.73057838  0.70164120  0.91607911     0.16100
O615        O  0.64957809  0.69256193  0.91646868    -0.26300
C616        C  0.64644356  0.64556028  0.91616350     0.05900
C617        C  0.69559007  0.64875310  0.91589829    -0.31100
O618        O  0.86133518  0.81879794  0.91670065    -0.23000
C619        C  0.86426832  0.86572256  0.91713708    -0.03000
C620        C  0.81504683  0.86233129  0.91723865    -0.17400
H621        H  0.70192833  0.80141194  0.91709292     0.20600
H622        H  0.80893312  0.70975727  0.91587527     0.19000
H623        H  0.70419500  0.61677267  0.91569774     0.18900
H624        H  0.80627364  0.89419176  0.91754097     0.14800
C625        C  0.19882001  0.22815197  0.91701524     0.30200
C626        C  0.22255481  0.28340403  0.91762500    -0.36100
C627        C  0.27800393  0.31164420  0.91728812     0.16200
C628        C  0.30796911  0.28721330  0.91643174     0.22000
C629        C  0.28425992  0.23207602  0.91576935    -0.34200
C630        C  0.22892025  0.20388754  0.91610545     0.16100
O631        O  0.14765715  0.19388170  0.91730476    -0.26300
C632        C  0.14513364  0.14716434  0.91657810     0.05900
C633        C  0.19445349  0.15100392  0.91579608    -0.31100
O634        O  0.35913498  0.32114924  0.91635559    -0.23000
C635        C  0.36205134  0.36797274  0.91713795    -0.03000
C636        C  0.31282829  0.36455544  0.91772396    -0.17400
H637        H  0.19946743  0.30295634  0.91835602     0.20600
H638        H  0.30735191  0.21251879  0.91509421     0.19000
H639        H  0.20352162  0.11938916  0.91516162     0.18900
H640        H  0.30408719  0.39638832  0.91839759     0.14800
C641        C  0.01676745  0.99007845  0.84778744     0.30200
C642        C  0.03292706  0.97388739  0.83479064    -0.36100
C643        C  0.01937380  0.98664021  0.82067374     0.16200
C644        C  0.99168063  0.01336421  0.81944239     0.22000
C645        C  0.97538746  0.02939103  0.83243444    -0.34200
C646        C  0.98908512  0.01680597  0.84654126     0.16100
O647        O  0.02556747  0.98270314  0.86210562    -0.26300
C648        C  0.00327510  0.00500857  0.87013594     0.05900
C649        C  0.97997896  0.02688769  0.86105394    -0.31100
O650        O  0.98381690  0.02178843  0.80513676    -0.23000
C651        C  0.00679564  0.00027117  0.79707274    -0.03000
C652        C  0.02950521  0.97770455  0.80613587    -0.17400
H653        H  0.05483983  0.95307694  0.83563031     0.20600
H654        H  0.95381393  0.05054331  0.83159611     0.19000
H655        H  0.95939923  0.04724560  0.86463452     0.18900
H656        H  0.05067141  0.95796790  0.80252936     0.14800
C657        C  0.47872877  0.50827960  0.98594699     0.30200
C658        C  0.44934901  0.50495381  0.99899319    -0.36100
C659        C  0.47251121  0.50510195  0.01304902     0.16200
C660        C  0.52157449  0.50918735  0.01418161     0.22000
C661        C  0.55050468  0.51163032  0.00115023    -0.34200
C662        C  0.52699382  0.51060795  0.98711315     0.16100
O663        O  0.46468769  0.50859607  0.97164631    -0.26300
C664        C  0.50409518  0.51025029  0.96359976     0.05900
C665        C  0.54384268  0.51139789  0.97260118    -0.31100
O666        O  0.53647786  0.51034179  0.02844334    -0.23000
C667        C  0.49616327  0.50622427  0.03656138    -0.03000
C668        C  0.45503270  0.50244028  0.02761083    -0.17400
H669        H  0.41113419  0.50235488  0.99823738     0.20600
H670        H  0.58866355  0.51410652  0.00190565     0.19000
H671        H  0.57992686  0.51282686  0.96895332     0.18900
H672        H  0.41820411  0.49924567  0.03131532     0.14800
C673        C  0.47286722  0.70134616  0.08398907     0.30200
C674        C  0.44178259  0.72557339  0.08392879    -0.36100
C675        C  0.46945020  0.78098390  0.08374798     0.16200
C676        C  0.52395413  0.81055171  0.08365115     0.22000
C677        C  0.55504251  0.78634255  0.08372700    -0.34200
C678        C  0.52737124  0.73094353  0.08389208     0.16100
O679        O  0.45530298  0.65006971  0.08404640    -0.26300
C680        C  0.49913775  0.64681987  0.08398179     0.05900
C681        C  0.54515031  0.69588403  0.08389534    -0.31100
O682        O  0.54153028  0.86180309  0.08346600    -0.23000
C683        C  0.49772421  0.86510599  0.08343483    -0.03000
C684        C  0.45168340  0.81608215  0.08360780    -0.17400
H685        H  0.39902991  0.70281682  0.08397962     0.20600
H686        H  0.59779789  0.80910225  0.08362967     0.19000
H687        H  0.58572325  0.70439574  0.08377866     0.18900
H688        H  0.41112877  0.80762285  0.08364346     0.14800
C689        C  0.47729639  0.20305180  0.08387965     0.30200
C690        C  0.44505371  0.22594330  0.08408783    -0.36100
C691        C  0.47134966  0.28122205  0.08345377     0.16200
C692        C  0.52569553  0.31195682  0.08271767     0.22000
C693        C  0.55801926  0.28904148  0.08249782    -0.34200
C694        C  0.53165748  0.23364726  0.08309944     0.16100
O695        O  0.46087110  0.15209661  0.08425815    -0.26300
C696        C  0.50520036  0.14986619  0.08369820     0.05900
C697        C  0.55056971  0.19940499  0.08298410    -0.31100
O698        O  0.54182243  0.36291511  0.08236489    -0.23000
C699        C  0.49720674  0.36474061  0.08285342    -0.03000
C700        C  0.45211781  0.31510464  0.08350943    -0.17400
H701        H  0.40240890  0.20226939  0.08468393     0.20600
H702        H  0.60066674  0.31271747  0.08190031     0.19000
H703        H  0.59134612  0.20871469  0.08237741     0.18900
H704        H  0.41124372  0.30548270  0.08408572     0.14800
C705        C  0.50585877  0.99040559  0.98614153     0.30200
C706        C  0.52650179  0.98007023  0.99932361    -0.36100
C707        C  0.51177237  0.99262349  0.01322805     0.16200
C708        C  0.47824022  0.01305134  0.01414944     0.22000
C709        C  0.45818398  0.02410550  0.00094460    -0.34200
C710        C  0.47347691  0.01216136  0.98702042     0.16100
O711        O  0.51446280  0.98167864  0.97195861    -0.26300
C712        C  0.48748747  0.99833912  0.96363494     0.05900
C713        C  0.46138344  0.01791112  0.97238666    -0.31100
O714        O  0.46855288  0.02033579  0.02838095    -0.23000
C715        C  0.49706604  0.00526733  0.03661321    -0.03000
C716        C  0.52493651  0.98793771  0.02781903    -0.17400
H717        H  0.55228491  0.96344993  0.99877709     0.20600
H718        H  0.43239844  0.04072474  0.00148670     0.19000
H719        H  0.43700088  0.03390218  0.96851414     0.18900
H720        H  0.55036610  0.97314440  0.03166675     0.14800
C721        C  0.01585213  0.49402815  0.98608101     0.30200
C722        C  0.04223782  0.49182866  0.99919451    -0.36100
C723        C  0.02117091  0.49588254  0.01315441     0.16200
C724        C  0.97658909  0.50069711  0.01418207     0.22000
C725        C  0.95068364  0.50372762  0.00105662    -0.34200
C726        C  0.97232030  0.50062215  0.98708799     0.16100
O727        O  0.02845373  0.49060154  0.97185434    -0.26300
C728        C  0.99292976  0.49577000  0.96366888     0.05900
C729        C  0.95723692  0.50244620  0.97251620    -0.31100
O730        O  0.96297190  0.50231797  0.02843401    -0.23000
C731        C  0.99990442  0.49945800  0.03659008    -0.03000
C732        C  0.03723134  0.49564246  0.02770888    -0.17400
H733        H  0.07676938  0.48731042  0.99855948     0.20600
H734        H  0.91611541  0.50818555  0.00168785     0.19000
H735        H  0.92454038  0.50717965  0.96873742     0.18900
H736        H  0.07074259  0.49227262  0.03146939     0.14800
C737        C  0.98114056  0.69623656  0.08416712     0.30200
C738        C  0.95011366  0.72051165  0.08402661    -0.36100
C739        C  0.97783189  0.77590581  0.08374569     0.16200
C740        C  0.03233473  0.80547221  0.08364689     0.22000
C741        C  0.06337106  0.78117513  0.08375111    -0.34200
C742        C  0.03564456  0.72574509  0.08400999     0.16100
O743        O  0.96348562  0.64496175  0.08434375    -0.26300
C744        C  0.00723564  0.64155340  0.08428074     0.05900
C745        C  0.05332299  0.69055854  0.08408266    -0.31100
O746        O  0.04992335  0.85676957  0.08351331    -0.23000
C747        C  0.00608709  0.86003323  0.08349456    -0.03000
C748        C  0.96007692  0.81097644  0.08360968    -0.17400
H749        H  0.90735853  0.69779903  0.08412181     0.20600
H750        H  0.10612215  0.80388719  0.08364500     0.19000
H751        H  0.09384965  0.69894718  0.08392216     0.18900
H752        H  0.91950753  0.80247666  0.08369129     0.14800
C753        C  0.02648668  0.30306789  0.08244302     0.30200
C754        C  0.05867938  0.28016645  0.08292268    -0.36100
C755        C  0.03230690  0.22487477  0.08300305     0.16200
C756        C  0.97792467  0.19409834  0.08258464     0.22000
C757        C  0.94562107  0.21703435  0.08204416    -0.34200
C758        C  0.97207248  0.27248139  0.08202014     0.16100
O759        O  0.04300443  0.35403177  0.08257655    -0.26300
C760        C  0.99870073  0.35632226  0.08225126     0.05900
C761        C  0.95322697  0.30679306  0.08186906    -0.31100
O762        O  0.96179110  0.14312225  0.08287406    -0.23000
C763        C  0.00645317  0.14137830  0.08350432    -0.03000
C764        C  0.05154237  0.19104943  0.08359562    -0.17400
H765        H  0.10135243  0.30385424  0.08333121     0.20600
H766        H  0.90293000  0.19334629  0.08178025     0.19000
H767        H  0.91241824  0.29752249  0.08166939     0.18900
H768        H  0.09245938  0.20075023  0.08404299     0.14800
C769        C  0.99130259  0.01003377  0.01455146     0.30200
C770        C  0.96492345  0.01247022  0.00147836    -0.36100
C771        C  0.98703840  0.01068673  0.98747900     0.16200
C772        C  0.03165988  0.00599284  0.98636960     0.22000
C773        C  0.05871108  0.00457041  0.99947526    -0.34200
C774        C  0.03699987  0.00720545  0.01351286     0.16100
O775        O  0.97648393  0.00954358  0.02877118    -0.26300
C776        C  0.01356806  0.00724374  0.03698216     0.05900
C777        C  0.05254284  0.00616572  0.02813219    -0.31100
O778        O  0.04437671  0.00339493  0.97207158    -0.23000
C779        C  0.00783620  0.00728239  0.96397451    -0.03000
C780        C  0.97133755  0.01212762  0.97295601    -0.17400
H781        H  0.92934758  0.01519172  0.00217757     0.20600
H782        H  0.09400543  0.00134262  0.99877887     0.19000
H783        H  0.08639277  0.00343993  0.03193080     0.18900
H784        H  0.93771865  0.01548788  0.96929268     0.14800
C785        C  0.52423015  0.51839943  0.51409697     0.30200
C786        C  0.55046640  0.54757619  0.50104096    -0.36100
C787        C  0.52813657  0.52391199  0.48702523     0.16200
C788        C  0.48343142  0.47468474  0.48590858     0.22000
C789        C  0.45729781  0.44539474  0.49897509    -0.34200
C790        C  0.47956008  0.46913538  0.51300390     0.16100
O791        O  0.53749441  0.53355829  0.52834882    -0.26300
C792        C  0.50117726  0.49325664  0.53648320     0.05900
C793        C  0.46419413  0.45195318  0.52756840    -0.31100
O794        O  0.46949312  0.46019064  0.47163356    -0.23000
C795        C  0.50542687  0.50094760  0.46354446    -0.03000
C796        C  0.54284912  0.54174812  0.47249664    -0.17400
H797        H  0.58548342  0.58619621  0.50176360     0.20600
H798        H  0.42202911  0.40696736  0.49825409     0.19000
H799        H  0.43048828  0.41518937  0.53129271     0.18900
H800        H  0.57618333  0.57885409  0.46880927     0.14800
C801        C  0.50867556  0.02474161  0.48620572     0.30200
C802        C  0.51802392  0.05581964  0.49928011    -0.36100
C803        C  0.50822113  0.02915598  0.51328647     0.16200
C804        C  0.49035737  0.97569815  0.51436430     0.22000
C805        C  0.48098177  0.94464284  0.50129903    -0.34200
C806        C  0.49076458  0.97128193  0.48730227     0.16100
O807        O  0.51494424  0.04132263  0.47193800    -0.26300
C808        C  0.50059034  0.99779268  0.46382464     0.05900
C809        C  0.48519151  0.95304162  0.47277036    -0.31100
O810        O  0.48394213  0.95898251  0.52861003    -0.23000
C811        C  0.49813012  0.00238365  0.53675276    -0.03000
C812        C  0.51355460  0.04724361  0.52784091    -0.17400
H813        H  0.53190878  0.09766530  0.49858396     0.20600
H814        H  0.46702018  0.90278320  0.50199594     0.19000
H815        H  0.47171529  0.91299455  0.46908562     0.18900
H816        H  0.52677041  0.08720686  0.53155873     0.14800
C817        C  0.98964891  0.47337683  0.51413561     0.30200
C818        C  0.97144277  0.44224103  0.50095404    -0.36100
C819        C  0.98748973  0.46946479  0.48703414     0.16200
C820        C  0.01923489  0.52366979  0.48610520     0.22000
C821        C  0.03750013  0.55488076  0.49930888    -0.34200
C822        C  0.02141721  0.52759832  0.51325851     0.16100
O823        O  0.97942459  0.45600747  0.52831899    -0.26300
C824        C  0.00486649  0.49960959  0.53667448     0.05900
C825        C  0.03169174  0.54539853  0.52792364    -0.31100
O826        O  0.02907054  0.54076952  0.47186890    -0.23000
C827        C  0.00333903  0.49689015  0.46360991    -0.03000
C828        C  0.97683312  0.45137250  0.47244103    -0.17400
H829        H  0.94645659  0.39971467  0.50151544     0.20600
H830        H  0.06240303  0.59741734  0.49874500     0.19000
H831        H  0.05531961  0.58578041  0.53181076     0.18900
H832        H  0.95298012  0.41090740  0.46864363     0.14800
C833        C  0.70305904  0.48324547  0.41711504     0.30200
C834        C  0.72654568  0.45164143  0.41718326    -0.36100
C835        C  0.78181363  0.47856554  0.41725604     0.16200
C836        C  0.81230080  0.53298339  0.41724953     0.22000
C837        C  0.78872903  0.56480112  0.41722935    -0.34200
C838        C  0.73314640  0.53772084  0.41716498     0.16100
O839        O  0.65191720  0.46598628  0.41695602    -0.26300
C840        C  0.64889095  0.50985822  0.41691286     0.05900
C841        C  0.69818664  0.55579668  0.41705992    -0.31100
O842        O  0.86348389  0.54942918  0.41718698    -0.23000
C843        C  0.86537878  0.50478258  0.41716820    -0.03000
C844        C  0.81577710  0.45964708  0.41723028    -0.17400
H845        H  0.70328723  0.40892546  0.41713526     0.20600
H846        H  0.81199240  0.60751803  0.41721565     0.19000
H847        H  0.70688193  0.59641919  0.41705327     0.18900
H848        H  0.80617223  0.41873976  0.41718671     0.14800
C849        C  0.28059602  0.46940689  0.41609127     0.30200
C850        C  0.22527899  0.43709252  0.41569707    -0.36100
C851        C  0.19622322  0.46356045  0.41603909     0.16200
C852        C  0.22012305  0.51794148  0.41670518     0.22000
C853        C  0.27515537  0.55005925  0.41707004    -0.34200
C854        C  0.30405746  0.52373445  0.41673477     0.16100
O855        O  0.31567533  0.45346753  0.41598747    -0.26300
C856        C  0.36198494  0.49828699  0.41656884     0.05900
C857        C  0.35707976  0.54314166  0.41702580    -0.31100
O858        O  0.18584911  0.53463695  0.41694481    -0.23000
C859        C  0.13918650  0.49054485  0.41642449    -0.03000
C860        C  0.14303641  0.44492944  0.41585322    -0.17400
H861        H  0.20628744  0.39443997  0.41519616     0.20600
H862        H  0.29414272  0.59270672  0.41760687     0.19000
H863        H  0.38812895  0.58409984  0.41755598     0.18900
H864        H  0.11138933  0.40422567  0.41536839     0.14800
C865        C  0.98566868  0.97057078  0.48598571     0.30200
C866        C  0.97208278  0.93891838  0.49911316    -0.36100
C867        C  0.98106676  0.96549984  0.51303490     0.16200
C868        C  0.00217221  0.01953808  0.51398135     0.22000
C869        C  0.01564734  0.05118637  0.50084356    -0.34200
C870        C  0.00663928  0.02459437  0.48691532     0.16100
O871        O  0.98022844  0.95392614  0.47180016    -0.26300
C872        C  0.99802860  0.99783246  0.46354713     0.05900
C873        C  0.01510132  0.04307176  0.47231947    -0.31100
O874        O  0.00813188  0.03619393  0.52818907    -0.23000
C875        C  0.99042292  0.99223897  0.53642507    -0.03000
C876        C  0.97290299  0.94700880  0.52761767    -0.17400
H877        H  0.95570246  0.89654710  0.49851028     0.20600
H878        H  0.03218023  0.09357666  0.50144482     0.19000
H879        H  0.03087813  0.08346554  0.46848695     0.18900
H880        H  0.95727162  0.90660568  0.53142347     0.14800
C881        C  0.77440249  0.96542471  0.41564611     0.30200
C882        C  0.71903531  0.93407008  0.41537943    -0.36100
C883        C  0.69098054  0.96152845  0.41545624     0.16200
C884        C  0.71576163  0.01600927  0.41572288     0.22000
C885        C  0.77096157  0.04726271  0.41588493    -0.34200
C886        C  0.79891748  0.01988111  0.41585985     0.16100
O887        O  0.80854382  0.94830920  0.41589444    -0.26300
C888        C  0.85540283  0.99246916  0.41625839     0.05900
C889        C  0.85176101  0.03811689  0.41623420    -0.31100
O890        O  0.68208788  0.03353006  0.41602166    -0.23000
C891        C  0.63501293  0.98979315  0.41594654    -0.03000
C892        C  0.63801926  0.94372433  0.41556959    -0.17400
H893        H  0.69924922  0.89133963  0.41526906     0.20600
H894        H  0.79073990  0.08998426  0.41616187     0.19000
H895        H  0.88349092  0.07881371  0.41653144     0.18900
H896        H  0.60592728  0.90318424  0.41552014     0.14800
C897        C  0.22034135  0.02556578  0.41765728     0.30200
C898        C  0.27566475  0.05748884  0.41727301    -0.36100
C899        C  0.30431629  0.03066908  0.41793705     0.16200
C900        C  0.28009155  0.97631564  0.41897789     0.22000
C901        C  0.22499956  0.94457072  0.41944916    -0.34200
C902        C  0.19645653  0.97125555  0.41869752     0.16100
O903        O  0.18563367  0.04189141  0.41693424    -0.26300
C904        C  0.13908974  0.99735714  0.41748719     0.05900
C905        C  0.14347327  0.95226649  0.41859071    -0.31100
O906        O  0.31410773  0.95925717  0.41912261    -0.23000
C907        C  0.36087001  0.00312478  0.41815597    -0.03000
C908        C  0.35735509  0.04889799  0.41742397    -0.17400
H909        H  0.29494770  0.10008995  0.41635523     0.20600
H910        H  0.20570608  0.90192781  0.42016638     0.19000
H911        H  0.11213152  0.91144279  0.41920606     0.18900
H912        H  0.38911966  0.08943601  0.41646105     0.14800
C913        C  0.52532657  0.51484504  0.15267965     0.30200
C914        C  0.55736407  0.52961889  0.16573395    -0.36100
C915        C  0.53078279  0.51731986  0.17976793     0.16200
C916        C  0.47639930  0.49214026  0.18090474     0.22000
C917        C  0.44433526  0.47724232  0.16784602    -0.34200
C918        C  0.47093360  0.48958008  0.15380531     0.16100
O919        O  0.54186178  0.52302582  0.13840806    -0.26300
C920        C  0.49749046  0.50269648  0.13028694     0.05900
C921        C  0.45212591  0.48126305  0.13925656    -0.31100
O922        O  0.45997764  0.48482922  0.19518746    -0.23000
C923        C  0.50443594  0.50560506  0.20328666    -0.03000
C924        C  0.54970204  0.52639561  0.19430000    -0.17400
H925        H  0.60004790  0.54953703  0.16499913     0.20600
H926        H  0.40166404  0.45760894  0.16858132     0.19000
H927        H  0.41132449  0.46263252  0.13557792     0.18900
H928        H  0.59054747  0.54551595  0.19795840     0.14800
C929        C  0.48058338  0.49567070  0.31952242     0.30200
C930        C  0.44980443  0.47494252  0.33272791    -0.36100
C931        C  0.47695770  0.49169779  0.34663427     0.16200
C932        C  0.53046657  0.52741545  0.34750680     0.22000
C933        C  0.56129606  0.54788163  0.33430098    -0.34200
C934        C  0.53432654  0.53029216  0.32039331     0.16100
O935        O  0.46359507  0.48450876  0.30532603    -0.26300
C936        C  0.50710639  0.51198049  0.29700846     0.05900
C937        C  0.55231740  0.54112053  0.30576621    -0.31100
O938        O  0.54761575  0.53789433  0.36170135    -0.23000
C939        C  0.50472142  0.50769150  0.36997548    -0.03000
C940        C  0.45964452  0.47798466  0.36125309    -0.17400
H941        H  0.40780930  0.44713841  0.33219235     0.20600
H942        H  0.60342628  0.57510029  0.33483315     0.19000
H943        H  0.59250364  0.56647043  0.30190267     0.18900
H944        H  0.41995115  0.45073116  0.36515169     0.14800
C945        C  0.48003364  0.70323760  0.24887431     0.30200
C946        C  0.44817913  0.72658618  0.24866370    -0.36100
C947        C  0.47499897  0.78193459  0.24904807     0.16200
C948        C  0.52942148  0.81226492  0.24957743     0.22000
C949        C  0.56129359  0.78891405  0.24973808    -0.34200
C950        C  0.53446341  0.73354374  0.24936995     0.16100
O951        O  0.46326566  0.65216356  0.24879642    -0.26300
C952        C  0.50751251  0.64972068  0.24922654     0.05900
C953        C  0.55305413  0.69912422  0.24957602    -0.31100
O954        O  0.54610299  0.86331523  0.24999250    -0.23000
C955        C  0.50178798  0.86566761  0.24973531    -0.03000
C956        C  0.45632431  0.81626362  0.24913284    -0.17400
H957        H  0.40547477  0.70322396  0.24831580     0.20600
H958        H  0.60398492  0.81226644  0.25019875     0.19000
H959        H  0.59379553  0.70824849  0.25004635     0.18900
H960        H  0.41554302  0.80706612  0.24884155     0.14800
C961        C  0.52925363  0.31189246  0.25023344     0.30200
C962        C  0.56029360  0.28766263  0.24968886    -0.36100
C963        C  0.53265383  0.23225180  0.24998293     0.16200
C964        C  0.47820989  0.20263620  0.25071594     0.22000
C965        C  0.44716109  0.22687216  0.25120483    -0.34200
C966        C  0.47480724  0.28229114  0.25095261     0.16100
O967        O  0.54680705  0.36316949  0.25014153    -0.26300
C968        C  0.50302360  0.36643284  0.25079980     0.05900
C969        C  0.45705715  0.31736844  0.25132775    -0.31100
O970        O  0.46069500  0.15135820  0.25098283    -0.23000
C971        C  0.50451309  0.14812775  0.25043652    -0.03000
C972        C  0.55044129  0.19720569  0.24978092    -0.17400
H973        H  0.60300748  0.31041832  0.24913379     0.20600
H974        H  0.40445591  0.20412217  0.25179908     0.19000
H975        H  0.41652374  0.30886466  0.25186915     0.18900
H976        H  0.59099136  0.20574204  0.24927064     0.14800
C977        C  0.53010711  0.02003420  0.18093934     0.30200
C978        C  0.56156502  0.03535641  0.16772953    -0.36100
C979        C  0.53423740  0.02190402  0.15378351     0.16200
C980        C  0.47975570  0.99517776  0.15290875     0.22000
C981        C  0.44836322  0.97984331  0.16609665    -0.34200
C982        C  0.47564246  0.99333941  0.18001533     0.16100
O983        O  0.54718090  0.02864260  0.19517547    -0.26300
C984        C  0.50302406  0.00721488  0.20344273     0.05900
C985        C  0.45735926  0.98466541  0.19461198    -0.31100
O986        O  0.46242300  0.98682687  0.13872299    -0.23000
C987        C  0.50632216  0.00848011  0.13036873    -0.03000
C988        C  0.55224758  0.03089829  0.13912012    -0.17400
H989        H  0.60429850  0.05638089  0.16828519     0.20600
H990        H  0.40563078  0.95896209  0.16554163     0.19000
H991        H  0.41664858  0.96479192  0.19841254     0.18900
H992        H  0.59286216  0.05097542  0.13523405     0.14800
C993        C  0.47591916  0.97967549  0.31957590     0.30200
C994        C  0.44738273  0.95212493  0.33260709    -0.36100
C995        C  0.47141440  0.97357595  0.34668603     0.16200
C996        C  0.51964728  0.01952292  0.34783922     0.22000
C997        C  0.54846142  0.04657150  0.33483133    -0.34200
C998        C  0.52493761  0.02461335  0.32077766     0.16100
O999        O  0.46099664  0.96694736  0.30526164    -0.26300
C1000       C  0.50137131  0.00377738  0.29723540     0.05900
C1001       C  0.54235576  0.04050898  0.30627787    -0.31100
O1002       O  0.53415901  0.03335443  0.36209959    -0.23000
C1003       C  0.49517457  0.99537332  0.37020266    -0.03000
C1004       C  0.45513634  0.95688888  0.36124890    -0.17400
H1005       H  0.40923299  0.91646481  0.33182239     0.20600
H1006       H  0.58662003  0.08221606  0.33561831     0.19000
H1007       H  0.57922006  0.07435504  0.30267104     0.18900
H1008       H  0.41905703  0.92227883  0.36494974     0.14800
C1009       C  0.98000765  0.48251130  0.15279047     0.30200
C1010       C  0.94874696  0.46737055  0.16599295    -0.36100
C1011       C  0.97616383  0.48120866  0.17988036     0.16200
C1012       C  0.03064678  0.50802307  0.18076822     0.22000
C1013       C  0.06198146  0.52315474  0.16754473    -0.34200
C1014       C  0.03450907  0.50934881  0.15362921     0.16100
O1015       O  0.96254523  0.47428374  0.13862114    -0.26300
C1016       C  0.00638649  0.49614960  0.13025073     0.05900
C1017       C  0.05238448  0.51846851  0.13896624    -0.31100
O1018       O  0.04783431  0.51685013  0.19498760    -0.23000
C1019       C  0.00372372  0.49539845  0.20326845    -0.03000
C1020       C  0.95799551  0.47273378  0.19447488    -0.17400
H1021       H  0.90599865  0.44646607  0.16547159     0.20600
H1022       H  0.10473370  0.54435628  0.16806706     0.19000
H1023       H  0.09297893  0.53889729  0.13505544     0.18900
H1024       H  0.91730595  0.45284118  0.19829992     0.14800
C1025       C  0.02778777  0.51048238  0.31954570     0.30200
C1026       C  0.05870331  0.52513996  0.33283132    -0.36100
C1027       C  0.03087380  0.51234273  0.34666746     0.16200
C1028       C  0.97635327  0.48617979  0.34740728     0.22000
C1029       C  0.94546745  0.47210491  0.33412246    -0.34200
C1030       C  0.97333024  0.48538332  0.32029015     0.16100
O1031       O  0.04545830  0.51807211  0.30538700    -0.26300
C1032       C  0.00170962  0.49767168  0.29697549     0.05900
C1033       C  0.95570601  0.47699361  0.30563127    -0.31100
O1034       O  0.95862209  0.47700056  0.36156577    -0.23000
C1035       C  0.00243026  0.49838084  0.36994535    -0.03000
C1036       C  0.04850867  0.52110428  0.36133638    -0.17400
H1037       H  0.10140995  0.54502156  0.33241270     0.20600
H1038       H  0.90274957  0.45201098  0.33453821     0.19000
H1039       H  0.91520539  0.45812416  0.30167942     0.18900
H1040       H  0.08896374  0.54048137  0.36534100     0.14800
C1041       C  0.03205772  0.80271995  0.25129236     0.30200
C1042       C  0.06412350  0.77945900  0.25129018    -0.36100
C1043       C  0.03740530  0.72401138  0.25062619     0.16200
C1044       C  0.98298097  0.69375825  0.25003247     0.22000
C1045       C  0.95106012  0.71693694  0.25003647    -0.34200
C1046       C  0.97767590  0.77215399  0.25068893     0.16100
O1047       O  0.04835840  0.85377880  0.25168507    -0.26300
C1048       C  0.00374087  0.85566239  0.25132402     0.05900
C1049       C  0.95861919  0.80607329  0.25072802    -0.31100
O1050       O  0.96610001  0.64276114  0.24957843    -0.23000
C1051       C  0.01015175  0.64003165  0.24987149    -0.03000
C1052       C  0.05586833  0.68935946  0.25050192    -0.17400
H1053       H  0.10680984  0.80289755  0.25174603     0.20600
H1054       H  0.90837470  0.69349734  0.24955568     0.19000
H1055       H  0.91773549  0.79648615  0.25023947     0.18900
H1056       H  0.09654374  0.69826051  0.25093046     0.14800
C1057       C  0.96920660  0.18724754  0.25023476     0.30200
C1058       C  0.93825573  0.21167221  0.25111410    -0.36100
C1059       C  0.96601690  0.26721333  0.25059065     0.16200
C1060       C  0.02035911  0.29650094  0.24929782     0.22000
C1061       C  0.05111588  0.27216166  0.24837711    -0.34200
C1062       C  0.02349586  0.21689559  0.24891200     0.16100
O1063       O  0.95199756  0.13593889  0.25067569    -0.26300
C1064       C  0.99599683  0.13303698  0.24963914     0.05900
C1065       C  0.04151317  0.18217339  0.24849985    -0.31100
O1066       O  0.03835460  0.34777594  0.24911497    -0.23000
C1067       C  0.99508802  0.35167486  0.25027710    -0.03000
C1068       C  0.94881076  0.30282757  0.25122017    -0.17400
H1069       H  0.89566273  0.18904494  0.25219507     0.20600
H1070       H  0.09373330  0.29480263  0.24738533     0.19000
H1071       H  0.08208463  0.19099995  0.24759873     0.18900
H1072       H  0.90854242  0.29483703  0.25224489     0.14800
C1073       C  0.02817284  0.00613782  0.15327753     0.30200
C1074       C  0.05906108  0.01985242  0.16656627    -0.36100
C1075       C  0.03119792  0.00588672  0.18040299     0.16200
C1076       C  0.97671298  0.98009217  0.18113155     0.22000
C1077       C  0.94583060  0.96616307  0.16784094    -0.34200
C1078       C  0.97368856  0.98024420  0.15400105     0.16100
O1079       O  0.04595192  0.01592315  0.13913197    -0.26300
C1080       C  0.00228783  0.99600552  0.13068401     0.05900
C1081       C  0.95614408  0.97327026  0.13931938    -0.31100
O1082       O  0.95896643  0.97178467  0.19528318    -0.23000
C1083       C  0.00266671  0.99259636  0.20371839    -0.03000
C1084       C  0.04877969  0.01424434  0.19507964    -0.17400
H1085       H  0.10179665  0.04035107  0.16614809     0.20600
H1086       H  0.90311688  0.94616796  0.16826457     0.19000
H1087       H  0.91567292  0.95451980  0.13534799     0.18900
H1088       H  0.08928600  0.03380072  0.19904981     0.14800
C1089       C  0.98057193  0.96701370  0.31966208     0.30200
C1090       C  0.96065095  0.93569301  0.33282741    -0.36100
C1091       C  0.97851510  0.96233993  0.34676326     0.16200
C1092       C  0.01320646  0.01606254  0.34765463     0.22000
C1093       C  0.03380850  0.04712618  0.33451692    -0.34200
C1094       C  0.01641431  0.02045656  0.32061088     0.16100
O1095       O  0.96856228  0.95074094  0.30543616    -0.26300
C1096       C  0.99777530  0.99423134  0.29725389     0.05900
C1097       C  0.02857786  0.03868014  0.30604745    -0.31100
O1098       O  0.02359104  0.03311649  0.36181628    -0.23000
C1099       C  0.99556323  0.98974279  0.37012225    -0.03000
C1100       C  0.96684720  0.94440407  0.36139845    -0.17400
H1101       H  0.93297228  0.89369371  0.33224669     0.20600
H1102       H  0.06127137  0.08917159  0.33510132     0.19000
H1103       H  0.05534072  0.07863148  0.30223326     0.18900
H1104       H  0.94082182  0.90436199  0.36528140     0.14800
loop_ 
_geom_bond_atom_site_label_1 
_geom_bond_atom_site_label_2 
_geom_bond_distance 
_geom_bond_site_symmetry_2 
_ccdc_geom_bond_type 
O1           Cu9   2.010       .  S
O1           C11   1.277       .  A
O2           Cu9   2.012       .  S
O2           C12   1.278   1_655  A
O3           Cu9   2.004       .  S
O3           C13   1.278   1_655  A
O4           Cu9   2.020   1_545  S
O4           C14   1.278       .  A
O5          Cu10   2.004       .  S
O5           C14   1.278   1_455  A
O6          Cu10   2.013   1_565  S
O6           C13   1.277       .  A
O7          Cu10   2.003       .  S
O7           C12   1.277   1_545  A
O8          Cu10   2.002       .  S
O8           C11   1.276   1_445  A
Cu9         Cu10   2.376   1_665  S
C11        C1096   1.460       .  S
C12        C1083   1.468       .  S
C13        C1048   1.468       .  S
C14        C1064   1.471       .  S
O15         Cu23   2.013       .  S
O15          C25   1.277       .  A
O16         Cu23   2.014       .  S
O16          C26   1.278       .  A
O17         Cu23   2.013       .  S
O17          C27   1.278   1_455  A
O18         Cu23   2.013       .  S
O18          C28   1.278       .  A
O19         Cu24   2.003       .  S
O19          C28   1.277   1_655  A
O20         Cu24   2.008       .  S
O20          C27   1.277       .  A
O21         Cu24   2.002       .  S
O21          C26   1.277   1_655  A
O22         Cu24   2.003       .  S
O22          C25   1.277   1_655  A
Cu23        Cu24   2.376   1_455  S
C25        C1019   1.468       .  S
C26        C1032   1.468       .  S
C27        C1067   1.469       .  S
C28        C1051   1.467       .  S
O29         Cu37   2.007       .  S
O29          C39   1.278   1_565  A
O30         Cu37   2.008       .  S
O30          C40   1.276   1_565  A
O31         Cu37   2.016   1_545  S
O31          C41   1.278       .  A
O32         Cu37   2.007       .  S
O32          C42   1.278       .  A
O33         Cu38   2.008   1_565  S
O33          C42   1.277       .  A
O34         Cu38   2.004       .  S
O34          C41   1.277       .  A
O35         Cu38   2.012       .  S
O35          C40   1.278       .  A
O36         Cu38   2.013       .  S
O36          C39   1.278       .  A
Cu37        Cu38   2.376   1_565  S
C39         C984   1.470       .  S
C40        C1000   1.467       .  S
C41         C971   1.469       .  S
C42         C955   1.467       .  S
O43         Cu51   2.007       .  S
O43          C53   1.277       .  A
O44         Cu51   2.006       .  S
O44          C54   1.277       .  A
O45         Cu51   2.009       .  S
O45          C55   1.278       .  A
O46         Cu51   2.013       .  S
O46          C56   1.278       .  A
O47         Cu52   2.006       .  S
O47          C56   1.277       .  A
O48         Cu52   2.007       .  S
O48          C55   1.277       .  A
O49         Cu52   2.011       .  S
O49          C54   1.277       .  A
O50         Cu52   2.011       .  S
O50          C53   1.277       .  A
Cu51        Cu52   2.376       .  S
C53         C936   1.468       .  S
C54         C923   1.468       .  S
C55         C952   1.467       .  S
C56         C968   1.469       .  S
O57         Cu65   2.006       .  S
O57          C67   1.277   1_445  A
O58         Cu65   2.005       .  S
O58          C68   1.277   1_445  A
O59         Cu65   2.006   1_655  S
O59          C69   1.278   1_545  A
O60         Cu65   2.007       .  S
O60          C70   1.276   1_545  A
O61         Cu66   2.011   1_455  S
O61          C70   1.279       .  A
O62         Cu66   2.014       .  S
O62          C69   1.278       .  A
O63         Cu66   2.001       .  S
O63          C68   1.276       .  A
O64         Cu66   2.000       .  S
O64          C67   1.276       .  A
Cu65        Cu66   2.377   1_445  S
C67         C872   1.463       .  S
C68        C1099   1.463       .  S
C69         C888   1.469       .  S
C70         C904   1.468       .  S
O71         Cu79   2.010       .  S
O71          C81   1.277       .  A
O72         Cu79   2.008       .  S
O72          C82   1.277       .  A
O73         Cu79   2.018   1_655  S
O73          C83   1.278       .  A
O74         Cu79   2.003       .  S
O74          C84   1.277       .  A
O75         Cu80   2.015   1_455  S
O75          C84   1.278       .  A
O76         Cu80   2.000       .  S
O76          C83   1.278       .  A
O77         Cu80   2.010       .  S
O77          C82   1.276   1_655  A
O78         Cu80   2.009       .  S
O78          C81   1.278   1_655  A
Cu79        Cu80   2.376   1_455  S
C81         C827   1.469       .  S
C82        C1035   1.462       .  S
C83         C843   1.469       .  S
C84         C859   1.468       .  S
O85         Cu93   2.012       .  S
O85          C95   1.278       .  A
O86         Cu93   2.005       .  S
O86          C96   1.277   1_565  A
O87         Cu93   2.009       .  S
O87          C97   1.277       .  A
O88         Cu93   2.005       .  S
O88          C98   1.277       .  A
O89         Cu94   2.009       .  S
O89          C98   1.277   1_545  A
O90         Cu94   2.007       .  S
O90          C97   1.277   1_545  A
O91         Cu94   2.012       .  S
O91          C96   1.278       .  A
O92         Cu94   2.007       .  S
O92          C95   1.277   1_545  A
Cu93        Cu94   2.376   1_565  S
C95         C891   1.468       .  S
C96         C907   1.467       .  S
C97        C1003   1.465       .  S
C98         C808   1.466       .  S
O99        Cu107   2.018       .  S
O99         C109   1.279       .  A
O100       Cu107   2.004       .  S
O100        C110   1.276       .  A
O101       Cu107   2.009       .  S
O101        C111   1.277       .  A
O102       Cu107   2.009       .  S
O102        C112   1.277       .  A
O103       Cu108   2.006       .  S
O103        C112   1.277       .  A
O104       Cu108   2.007       .  S
O104        C111   1.276       .  A
O105       Cu108   2.014       .  S
O105        C110   1.279       .  A
O106       Cu108   2.002       .  S
O106        C109   1.276       .  A
Cu107      Cu108   2.377       .  S
C109        C840   1.469       .  S
C110        C856   1.469       .  S
C111        C939   1.463       .  S
C112        C795   1.465       .  S
O113       Cu121   2.008       .  S
O113        C123   1.277       .  A
O114       Cu121   2.009       .  S
O114        C124   1.277   1_545  A
O115       Cu121   2.012   1_565  S
O115        C125   1.278       .  A
O116       Cu121   2.019       .  S
O116        C126   1.280       .  A
O117       Cu122   1.999   1_545  S
O117        C126   1.275   1_655  A
O118       Cu122   2.007       .  S
O118        C125   1.277   1_655  A
O119       Cu122   2.013       .  S
O119        C124   1.278   1_655  A
O120       Cu122   2.011       .  S
O120        C123   1.278   1_665  A
Cu121      Cu122   2.376   1_445  S
C123        C776   1.466       .  S
C124       C1080   1.469       .  S
C125        C747   1.469       .  S
C126        C763   1.468       .  S
O127       Cu135   2.005       .  S
O127        C137   1.277       .  A
O128       Cu135   2.004       .  S
O128        C138   1.277       .  A
O129       Cu135   2.013       .  S
O129        C139   1.278       .  A
O130       Cu135   2.002       .  S
O130        C140   1.277   1_455  A
O131       Cu136   2.015       .  S
O131        C140   1.278       .  A
O132       Cu136   2.008       .  S
O132        C139   1.277   1_655  A
O133       Cu136   2.013       .  S
O133        C138   1.277   1_655  A
O134       Cu136   2.013       .  S
O134        C137   1.278   1_655  A
Cu135      Cu136   2.376   1_455  S
C137       C1016   1.468       .  S
C138        C731   1.465   1_455  S
C139        C744   1.469       .  S
C140        C760   1.467       .  S
O141       Cu149   2.001   1_545  S
O141        C151   1.276       .  A
O142       Cu149   2.012       .  S
O142        C152   1.278       .  A
O143       Cu149   2.011       .  S
O143        C153   1.278   1_565  A
O144       Cu149   2.014       .  S
O144        C154   1.277   1_565  A
O145       Cu150   2.010       .  S
O145        C154   1.277       .  A
O146       Cu150   2.011       .  S
O146        C153   1.278       .  A
O147       Cu150   2.006   1_565  S
O147        C152   1.277       .  A
O148       Cu150   2.016       .  S
O148        C151   1.278       .  A
Cu149      Cu150   2.376   1_565  S
C151        C696   1.468       .  S
C152        C683   1.468       .  S
C153        C987   1.470       .  S
C154        C715   1.465       .  S
O155       Cu163   2.017       .  S
O155        C165   1.279       .  A
O156       Cu163   2.012       .  S
O156        C166   1.278       .  A
O157       Cu163   2.007       .  S
O157        C167   1.277       .  A
O158       Cu163   2.006       .  S
O158        C168   1.277       .  A
O159       Cu164   2.012       .  S
O159        C168   1.278       .  A
O160       Cu164   2.011       .  S
O160        C167   1.278       .  A
O161       Cu164   2.007       .  S
O161        C166   1.277       .  A
O162       Cu164   2.000       .  S
O162        C165   1.275       .  A
Cu163      Cu164   2.376       .  S
C165        C699   1.468       .  S
C166        C680   1.469       .  S
C167        C667   1.466       .  S
C168        C920   1.468       .  S
O169       Cu177   2.006   1_545  S
O169        C179   1.278       .  A
O170       Cu177   2.017   1_655  S
O170        C180   1.278       .  A
O171       Cu177   2.008       .  S
O171        C181   1.277   1_565  A
O172       Cu177   2.011       .  S
O172        C182   1.277   1_565  A
O173       Cu178   2.012       .  S
O173        C182   1.278   1_655  A
O174       Cu178   2.014       .  S
O174        C181   1.279   1_655  A
O175       Cu178   2.003   1_565  S
O175        C180   1.277       .  A
O176       Cu178   2.010   1_455  S
O176        C179   1.277       .  A
Cu177      Cu178   2.376   1_465  S
C179        C632   1.468       .  S
C180        C619   1.469       .  S
C181        C648   1.470       .  S
C182        C779   1.468       .  S
O183       Cu191   2.016   1_655  S
O183        C193   1.278       .  A
O184       Cu191   2.009       .  S
O184        C194   1.278       .  A
O185       Cu191   2.011       .  S
O185        C195   1.277   1_455  A
O186       Cu191   2.012       .  S
O186        C196   1.278   1_455  A
O187       Cu192   2.000       .  S
O187        C196   1.277       .  A
O188       Cu192   1.999       .  S
O188        C195   1.276       .  A
O189       Cu192   2.008   1_455  S
O189        C194   1.277       .  A
O190       Cu192   2.003       .  S
O190        C193   1.277       .  A
Cu191      Cu192   2.377   1_455  S
C193        C568   1.469       .  S
C194        C584   1.468       .  S
C195        C728   1.464       .  S
C196        C603   1.466       .  S
O197       Cu205   2.001   1_545  S
O197        C207   1.276       .  A
O198       Cu205   2.005       .  S
O198        C208   1.276       .  A
O199       Cu205   2.011       .  S
O199        C209   1.277       .  A
O200       Cu205   2.013       .  S
O200        C210   1.278       .  A
O201       Cu206   2.005       .  S
O201        C210   1.277   1_545  A
O202       Cu206   2.004       .  S
O202        C209   1.277   1_545  A
O203       Cu206   2.015   1_565  S
O203        C208   1.279       .  A
O204       Cu206   2.015       .  S
O204        C207   1.278       .  A
Cu205      Cu206   2.376   1_565  S
C207        C571   1.468       .  S
C208        C587   1.469       .  S
C209        C552   1.467       .  S
C210        C712   1.469       .  S
O211       Cu219   2.010       .  S
O211        C221   1.278       .  A
O212       Cu219   2.007       .  S
O212        C222   1.277       .  A
O213       Cu219   2.009       .  S
O213        C223   1.278       .  A
O214       Cu219   2.009       .  S
O214        C224   1.278       .  A
O215       Cu220   2.008       .  S
O215        C224   1.277       .  A
O216       Cu220   2.009       .  S
O216        C223   1.277       .  A
O217       Cu220   2.012       .  S
O217        C222   1.278       .  A
O218       Cu220   2.005       .  S
O218        C221   1.277       .  A
Cu219      Cu220   2.376       .  S
C221        C635   1.467       .  S
C222        C616   1.469       .  S
C223        C664   1.465       .  S
C224        C539   1.468       .  S
O225       Cu233   2.005       .  S
O225        C235   1.277       .  A
O226       Cu233   2.011       .  S
O226        C236   1.278       .  A
O227       Cu233   2.011       .  S
O227        C237   1.278       .  A
O228       Cu233   2.005   1_455  S
O228        C238   1.277       .  A
O229       Cu234   2.014       .  S
O229        C238   1.278   1_545  A
O230       Cu234   2.006   1_655  S
O230        C237   1.276   1_545  A
O231       Cu234   2.011       .  S
O231        C236   1.277   1_445  A
O232       Cu234   2.007       .  S
O232        C235   1.277   1_445  A
Cu233      Cu234   2.376   1_665  S
C235        C875   1.465       .  S
C236        C523   1.469       .  S
C237        C488   1.468       .  S
C238        C504   1.469       .  S
O239       Cu247   2.010       .  S
O239        C249   1.277   1_455  A
O240       Cu247   2.012       .  S
O240        C250   1.278       .  A
O241       Cu247   2.008   1_655  S
O241        C251   1.277       .  A
O242       Cu247   2.012       .  S
O242        C252   1.279       .  A
O243       Cu248   2.006   1_455  S
O243        C252   1.276       .  A
O244       Cu248   2.012       .  S
O244        C251   1.279       .  A
O245       Cu248   2.012       .  S
O245        C250   1.278   1_655  A
O246       Cu248   2.012       .  S
O246        C249   1.277       .  A
Cu247      Cu248   2.376   1_455  S
C249        C475   1.464       .  S
C250        C824   1.470       .  S
C251        C440   1.469       .  S
C252        C456   1.468       .  S
O253       Cu261   2.005       .  S
O253        C263   1.276       .  A
O254       Cu261   2.003       .  S
O254        C264   1.277       .  A
O255       Cu261   2.002       .  S
O255        C265   1.278   1_545  A
O256       Cu261   2.017       .  S
O256        C266   1.279       .  A
O257       Cu262   2.000       .  S
O257        C266   1.276   1_565  A
O258       Cu262   2.016       .  S
O258        C265   1.278       .  A
O259       Cu262   2.008       .  S
O259        C264   1.277   1_565  A
O260       Cu262   2.010       .  S
O260        C263   1.277   1_565  A
Cu261      Cu262   2.377   1_545  S
C263        C427   1.463       .  S
C264        C811   1.466       .  S
C265        C507   1.469       .  S
C266        C491   1.467       .  S
O267       Cu275   2.007       .  S
O267        C277   1.277       .  A
O268       Cu275   2.009       .  S
O268        C278   1.277       .  A
O269       Cu275   2.012       .  S
O269        C279   1.278       .  A
O270       Cu275   2.008       .  S
O270        C280   1.278       .  A
O271       Cu276   2.007       .  S
O271        C280   1.277       .  A
O272       Cu276   2.007       .  S
O272        C279   1.277       .  A
O273       Cu276   2.011       .  S
O273        C278   1.278       .  A
O274       Cu276   2.009       .  S
O274        C277   1.277       .  A
Cu275      Cu276   2.376       .  S
C277        C792   1.465       .  S
C278        C408   1.468       .  S
C279        C443   1.468       .  S
C280        C459   1.467       .  S
O281       Cu289   2.016       .  S
O281        C291   1.278   1_565  A
O282       Cu289   2.015       .  S
O282        C292   1.278   1_565  A
O283       Cu289   2.006   1_655  S
O283        C293   1.277       .  A
O284       Cu289   2.017   1_545  S
O284        C294   1.279       .  A
O285       Cu290   2.005   1_455  S
O285        C294   1.276       .  A
O286       Cu290   2.011   1_565  S
O286        C293   1.278       .  A
O287       Cu290   2.012       .  S
O287        C292   1.277   1_655  A
O288       Cu290   2.012       .  S
O288        C291   1.278   1_655  A
Cu289      Cu290   2.376   1_465  S
C291        C520   1.469       .  S
C292        C651   1.471       .  S
C293        C379   1.468       .  S
C294        C395   1.470       .  S
O295       Cu303   2.006   1_655  S
O295        C305   1.277       .  A
O296       Cu303   2.008       .  S
O296        C306   1.278       .  A
O297       Cu303   2.003       .  S
O297        C307   1.277   1_455  A
O298       Cu303   2.006       .  S
O298        C308   1.277   1_455  A
O299       Cu304   2.014       .  S
O299        C308   1.279       .  A
O300       Cu304   2.012       .  S
O300        C307   1.278       .  A
O301       Cu304   2.011   1_455  S
O301        C306   1.277       .  A
O302       Cu304   2.009       .  S
O302        C305   1.278       .  A
Cu303      Cu304   2.376   1_455  S
C305        C347   1.467       .  S
C306        C360   1.469       .  S
C307        C600   1.467       .  S
C308        C472   1.469       .  S
O309       Cu317   2.009   1_565  S
O309        C319   1.278       .  A
O310       Cu317   2.006       .  S
O310        C320   1.277       .  A
O311       Cu317   2.010       .  S
O311        C321   1.277   1_545  A
O312       Cu317   2.007       .  S
O312        C322   1.277   1_545  A
O313       Cu318   2.007       .  S
O313        C322   1.277       .  A
O314       Cu318   2.007       .  S
O314        C321   1.278       .  A
O315       Cu318   2.011   1_545  S
O315        C320   1.278       .  A
O316       Cu318   2.011       .  S
O316        C319   1.277       .  A
Cu317      Cu318   2.377   1_545  S
C319        C363   1.469       .  S
C320        C344   1.468       .  S
C321        C424   1.467       .  S
C322        C555   1.466       .  S
O323       Cu331   2.001       .  S
O323        C333   1.276       .  A
O324       Cu331   2.015       .  S
O324        C334   1.278       .  A
O325       Cu331   2.012       .  S
O325        C335   1.277       .  A
O326       Cu331   2.012       .  S
O326        C336   1.277       .  A
O327       Cu332   2.009       .  S
O327        C336   1.277       .  A
O328       Cu332   2.009       .  S
O328        C335   1.278       .  A
O329       Cu332   2.003       .  S
O329        C334   1.277       .  A
O330       Cu332   2.016       .  S
O330        C333   1.279       .  A
Cu331      Cu332   2.376       .  S
C333        C392   1.468       .  S
C334        C376   1.469       .  S
C335        C536   1.469       .  S
C336        C411   1.466       .  S
C337        C342   1.380       .  A
C337        C338   1.403       .  A
C337        O343   1.318       .  A
C338        C339   1.402       .  A
C338        H349   1.082       .  S
C339        C348   1.361       .  A
C339        C340   1.381       .  A
C340        C341   1.402       .  A
C340        O346   1.317       .  A
C341        C342   1.401       .  A
C341        H350   1.082       .  S
C342        C345   1.360       .  A
O343        C344   1.331       .  A
C344        C345   1.390       .  A
C345        H351   1.082       .  S
O346        C347   1.330       .  A
C347        C348   1.391       .  A
C348        H352   1.082       .  S
C353        C358   1.381       .  A
C353        C354   1.402       .  A
C353        O359   1.319       .  A
C354        C355   1.402       .  A
C354        H365   1.082       .  S
C355        C364   1.360       .  A
C355        C356   1.380       .  A
C356        C357   1.403       .  A
C356        O362   1.319       .  A
C357        C358   1.403       .  A
C357        H366   1.082       .  S
C358        C361   1.361       .  A
O359        C360   1.330       .  A
C360        C361   1.391       .  A
C361        H367   1.082       .  S
O362        C363   1.331       .  A
C363        C364   1.391       .  A
C364        H368   1.082       .  S
C369        C374   1.381       .  A
C369        C370   1.404       .  A
C369        O375   1.320       .  A
C370        C371   1.403       .  A
C370        H381   1.083       .  S
C371        C380   1.362       .  A
C371        C372   1.381       .  A
C372        C373   1.401       .  A
C372        O378   1.318       .  A
C373        C374   1.401       .  A
C373        H382   1.083       .  S
C374        C377   1.359       .  A
O375        C376   1.331       .  A
C376        C377   1.390       .  A
C377        H383   1.083       .  S
O378        C379   1.330       .  A
C379        C380   1.392       .  A
C380        H384   1.083       .  S
C385        C390   1.380       .  A
C385        C386   1.402       .  A
C385        O391   1.317       .  A
C386        C387   1.401       .  A
C386        H397   1.082       .  S
C387        C396   1.361       .  A
C387        C388   1.380       .  A
C388        C389   1.405       .  A
C388        O394   1.319       .  A
C389        C390   1.403       .  A
C389        H398   1.082       .  S
C390        C393   1.364       .  A
O391        C392   1.330       .  A
C392        C393   1.392       .  A
C393        H399   1.082       .  S
O394        C395   1.332       .  A
C395        C396   1.390       .  A
C396        H400   1.082       .  S
C401        C406   1.381       .  A
C401        C402   1.404       .  A
C401        O407   1.319       .  A
C402        C403   1.403       .  A
C402        H413   1.083       .  S
C403        C412   1.363       .  A
C403        C404   1.381       .  A
C404        C405   1.402       .  A
C404        O410   1.318       .  A
C405        C406   1.401       .  A
C405        H414   1.083       .  S
C406        C409   1.361       .  A
O407        C408   1.331       .  A
C408        C409   1.390       .  A
C409        H415   1.083       .  S
O410        C411   1.329       .  A
C411        C412   1.391       .  A
C412        H416   1.083       .  S
C417        C422   1.381   1_545  A
C417        C418   1.404       .  A
C417        O423   1.319       .  A
C418        C419   1.403       .  A
C418        H429   1.082       .  S
C419        C428   1.362       .  A
C419        C420   1.381   1_545  A
C420        C421   1.401       .  A
C420        O426   1.318       .  A
C421        C422   1.401       .  A
C421        H430   1.082       .  S
C422        C425   1.359       .  A
O423        C424   1.331   1_545  A
C424        C425   1.390       .  A
C425        H431   1.082       .  S
O426        C427   1.329   1_565  A
C427        C428   1.390       .  A
C428        H432   1.082       .  S
C433        C438   1.380       .  A
C433        C434   1.405       .  A
C433        O439   1.320       .  A
C434        C435   1.404       .  A
C434        H445   1.082       .  S
C435        C444   1.364       .  A
C435        C436   1.381       .  A
C436        C437   1.401       .  A
C436        O442   1.316       .  A
C437        C438   1.400       .  A
C437        H446   1.083       .  S
C438        C441   1.359       .  A
O439        C440   1.332       .  A
C440        C441   1.390       .  A
C441        H447   1.083       .  S
O442        C443   1.329       .  A
C443        C444   1.393       .  A
C444        H448   1.083       .  S
C449        C454   1.381       .  A
C449        C450   1.406       .  A
C449        O455   1.320       .  A
C450        C451   1.405       .  A
C450        H461   1.083       .  S
C451        C460   1.364       .  A
C451        C452   1.381       .  A
C452        C453   1.399       .  A
C452        O458   1.315       .  A
C453        C454   1.398       .  A
C453        H462   1.083       .  S
C454        C457   1.358       .  A
O455        C456   1.332       .  A
C456        C457   1.389       .  A
C457        H463   1.083       .  S
O458        C459   1.328       .  A
C459        C460   1.393       .  A
C460        H464   1.083       .  S
C465        C470   1.380   1_455  A
C465        C466   1.404       .  A
C465        O471   1.319       .  A
C466        C467   1.403       .  A
C466        H477   1.082       .  S
C467        C476   1.363       .  A
C467        C468   1.381   1_455  A
C468        C469   1.403       .  A
C468        O474   1.318       .  A
C469        C470   1.402       .  A
C469        H478   1.082       .  S
C470        C473   1.361       .  A
O471        C472   1.331   1_455  A
C472        C473   1.391       .  A
C473        H479   1.082       .  S
O474        C475   1.329       .  A
C475        C476   1.390   1_655  A
C476        H480   1.082       .  S
C481        C486   1.380   1_545  A
C481        C482   1.404       .  A
C481        O487   1.319       .  A
C482        C483   1.403       .  A
C482        H493   1.082       .  S
C483        C492   1.363       .  A
C483        C484   1.381   1_545  A
C484        C485   1.401       .  A
C484        O490   1.316       .  A
C485        C486   1.400       .  A
C485        H494   1.082       .  S
C486        C489   1.359       .  A
O487        C488   1.331   1_545  A
C488        C489   1.390       .  A
C489        H495   1.082       .  S
O490        C491   1.329   1_565  A
C491        C492   1.392       .  A
C492        H496   1.082       .  S
C497        C502   1.381   1_545  A
C497        C498   1.400       .  A
C497        O503   1.317       .  A
C498        C499   1.400       .  A
C498        H509   1.082       .  S
C499        C508   1.358       .  A
C499        C500   1.380   1_545  A
C500        C501   1.405       .  A
C500        O506   1.321       .  A
C501        C502   1.405       .  A
C501        H510   1.082       .  S
C502        C505   1.363       .  A
O503        C504   1.329   1_545  A
C504        C505   1.393       .  A
C505        H511   1.083       .  S
O506        C507   1.332       .  A
C507        C508   1.389   1_565  A
C508        H512   1.083       .  S
C513        C518   1.381   1_565  A
C513        C514   1.404   1_455  A
C513        O519   1.320       .  A
C514        C515   1.403       .  A
C514        H525   1.083       .  S
C515        C524   1.362       .  A
C515        C516   1.381   1_665  A
C516        C517   1.404       .  A
C516        O522   1.320       .  A
C517        C518   1.403       .  A
C517        H526   1.083       .  S
C518        C521   1.362       .  A
O519        C520   1.331   1_565  A
C520        C521   1.391       .  A
C521        H527   1.083       .  S
O522        C523   1.331   1_445  A
C523        C524   1.391       .  A
C524        H528   1.083       .  S
C529        C534   1.380       .  A
C529        C530   1.404       .  A
C529        O535   1.319       .  A
C530        C531   1.403       .  A
C530        H541   1.082       .  S
C531        C540   1.363       .  A
C531        C532   1.381       .  A
C532        C533   1.402       .  A
C532        O538   1.317       .  A
C533        C534   1.401       .  A
C533        H542   1.082       .  S
C534        C537   1.360       .  A
O535        C536   1.331       .  A
C536        C537   1.390       .  A
C537        H543   1.082       .  S
O538        C539   1.330       .  A
C539        C540   1.392       .  A
C540        H544   1.082       .  S
C545        C550   1.381   1_565  A
C545        C546   1.403       .  A
C545        O551   1.318       .  A
C546        C547   1.402       .  A
C546        H557   1.083       .  S
C547        C556   1.361       .  A
C547        C548   1.381   1_565  A
C548        C549   1.402       .  A
C548        O554   1.317       .  A
C549        C550   1.401       .  A
C549        H558   1.083       .  S
C550        C553   1.360       .  A
O551        C552   1.330       .  A
C552        C553   1.391   1_565  A
C553        H559   1.083       .  S
O554        C555   1.330   1_545  A
C555        C556   1.391       .  A
C556        H560   1.083       .  S
C561        C566   1.381       .  A
C561        C562   1.404       .  A
C561        O567   1.320       .  A
C562        C563   1.403       .  A
C562        H573   1.082       .  S
C563        C572   1.361       .  A
C563        C564   1.381       .  A
C564        C565   1.401       .  A
C564        O570   1.318       .  A
C565        C566   1.401       .  A
C565        H574   1.082       .  S
C566        C569   1.359       .  A
O567        C568   1.331       .  A
C568        C569   1.390       .  A
C569        H575   1.082       .  S
O570        C571   1.330       .  A
C571        C572   1.392       .  A
C572        H576   1.082       .  S
C577        C582   1.380       .  A
C577        C578   1.403       .  A
C577        O583   1.318       .  A
C578        C579   1.402       .  A
C578        H589   1.082       .  S
C579        C588   1.362       .  A
C579        C580   1.380       .  A
C580        C581   1.403       .  A
C580        O586   1.318       .  A
C581        C582   1.402       .  A
C581        H590   1.082       .  S
C582        C585   1.362       .  A
O583        C584   1.330       .  A
C584        C585   1.391       .  A
C585        H591   1.082       .  S
O586        C587   1.331       .  A
C587        C588   1.391       .  A
C588        H592   1.082       .  S
C593        C598   1.381   1_655  A
C593        C594   1.402       .  A
C593        O599   1.319       .  A
C594        C595   1.402       .  A
C594        H605   1.082       .  S
C595        C604   1.359       .  A
C595        C596   1.381   1_655  A
C596        C597   1.402       .  A
C596        O602   1.318       .  A
C597        C598   1.401       .  A
C597        H606   1.082       .  S
C598        C601   1.359       .  A
O599        C600   1.330       .  A
C600        C601   1.391   1_655  A
C601        H607   1.082       .  S
O602        C603   1.330   1_455  A
C603        C604   1.391       .  A
C604        H608   1.082       .  S
C609        C614   1.381       .  A
C609        C610   1.402       .  A
C609        O615   1.318       .  A
C610        C611   1.402       .  A
C610        H621   1.082       .  S
C611        C620   1.360       .  A
C611        C612   1.380       .  A
C612        C613   1.404       .  A
C612        O618   1.320       .  A
C613        C614   1.403       .  A
C613        H622   1.082       .  S
C614        C617   1.361       .  A
O615        C616   1.330       .  A
C616        C617   1.392       .  A
C617        H623   1.082       .  S
O618        C619   1.331       .  A
C619        C620   1.391       .  A
C620        H624   1.082       .  S
C625        C630   1.380       .  A
C625        C626   1.404       .  A
C625        O631   1.319       .  A
C626        C627   1.403       .  A
C626        H637   1.082       .  S
C627        C636   1.362       .  A
C627        C628   1.381       .  A
C628        C629   1.401       .  A
C628        O634   1.317       .  A
C629        C630   1.400       .  A
C629        H638   1.082       .  S
C630        C633   1.359       .  A
O631        C632   1.331       .  A
C632        C633   1.390       .  A
C633        H639   1.082       .  S
O634        C635   1.329       .  A
C635        C636   1.392       .  A
C636        H640   1.082       .  S
C641        C646   1.381   1_465  A
C641        C642   1.404       .  A
C641        O647   1.319       .  A
C642        C643   1.403       .  A
C642        H653   1.083       .  S
C643        C652   1.363       .  A
C643        C644   1.381   1_465  A
C644        C645   1.403       .  A
C644        O650   1.318       .  A
C645        C646   1.402       .  A
C645        H654   1.083       .  S
C646        C649   1.362       .  A
O647        C648   1.331   1_565  A
C648        C649   1.391   1_455  A
C649        H655   1.083       .  S
O650        C651   1.331   1_655  A
C651        C652   1.392   1_545  A
C652        H656   1.083       .  S
C657        C662   1.381       .  A
C657        C658   1.404       .  A
C657        O663   1.319       .  A
C658        C659   1.403   1_556  A
C658        H669   1.082       .  S
C659        C668   1.362       .  A
C659        C660   1.381       .  A
C660        C661   1.402       .  A
C660        O666   1.317       .  A
C661        C662   1.401   1_554  A
C661        H670   1.082       .  S
C662        C665   1.360       .  A
O663        C664   1.331       .  A
C664        C665   1.389       .  A
C665        H671   1.082       .  S
O666        C667   1.329       .  A
C667        C668   1.391       .  A
C668        H672   1.082       .  S
C673        C678   1.381       .  A
C673        C674   1.403       .  A
C673        O679   1.319       .  A
C674        C675   1.402       .  A
C674        H685   1.082       .  S
C675        C684   1.361       .  A
C675        C676   1.381       .  A
C676        C677   1.403       .  A
C676        O682   1.318       .  A
C677        C678   1.402       .  A
C677        H686   1.082       .  S
C678        C681   1.360       .  A
O679        C680   1.330       .  A
C680        C681   1.391       .  A
C681        H687   1.083       .  S
O682        C683   1.330       .  A
C683        C684   1.391       .  A
C684        H688   1.082       .  S
C689        C694   1.381       .  A
C689        C690   1.402       .  A
C689        O695   1.317       .  A
C690        C691   1.400       .  A
C690        H701   1.082       .  S
C691        C700   1.361       .  A
C691        C692   1.380       .  A
C692        C693   1.404       .  A
C692        O698   1.318       .  A
C693        C694   1.403       .  A
C693        H702   1.082       .  S
C694        C697   1.363       .  A
O695        C696   1.330       .  A
C696        C697   1.392       .  A
C697        H703   1.082       .  S
O698        C699   1.331       .  A
C699        C700   1.390       .  A
C700        H704   1.082       .  S
C705        C710   1.381   1_565  A
C705        C706   1.402       .  A
C705        O711   1.319       .  A
C706        C707   1.402   1_556  A
C706        H717   1.082       .  S
C707        C716   1.360       .  A
C707        C708   1.381   1_565  A
C708        C709   1.404       .  A
C708        O714   1.320       .  A
C709        C710   1.403   1_554  A
C709        H718   1.082       .  S
C710        C713   1.361       .  A
O711        C712   1.330       .  A
C712        C713   1.392   1_565  A
C713        H719   1.082       .  S
O714        C715   1.331       .  A
C715        C716   1.389   1_545  A
C716        H720   1.082       .  S
C721        C726   1.381   1_455  A
C721        C722   1.402       .  A
C721        O727   1.318       .  A
C722        C723   1.401   1_556  A
C722        H733   1.082       .  S
C723        C732   1.359       .  A
C723        C724   1.381   1_455  A
C724        C725   1.402       .  A
C724        O730   1.319       .  A
C725        C726   1.402   1_554  A
C725        H734   1.082       .  S
C726        C729   1.359       .  A
O727        C728   1.330   1_455  A
C728        C729   1.390       .  A
C729        H735   1.083       .  S
O730        C731   1.330       .  A
C731        C732   1.390   1_655  A
C732        H736   1.082       .  S
C737        C742   1.381   1_655  A
C737        C738   1.403       .  A
C737        O743   1.318       .  A
C738        C739   1.402       .  A
C738        H749   1.082       .  S
C739        C748   1.360       .  A
C739        C740   1.381   1_655  A
C740        C741   1.403       .  A
C740        O746   1.319       .  A
C741        C742   1.403       .  A
C741        H750   1.082       .  S
C742        C745   1.362       .  A
O743        C744   1.331   1_655  A
C744        C745   1.391       .  A
C745        H751   1.082       .  S
O746        C747   1.331       .  A
C747        C748   1.391   1_455  A
C748        H752   1.083       .  S
C753        C758   1.381   1_455  A
C753        C754   1.401       .  A
C753        O759   1.316       .  A
C754        C755   1.400       .  A
C754        H765   1.082       .  S
C755        C764   1.360       .  A
C755        C756   1.380   1_455  A
C756        C757   1.405       .  A
C756        O762   1.319       .  A
C757        C758   1.404       .  A
C757        H766   1.083       .  S
C758        C761   1.364       .  A
O759        C760   1.329   1_455  A
C760        C761   1.392       .  A
C761        H767   1.083       .  S
O762        C763   1.332   1_655  A
C763        C764   1.389       .  A
C764        H768   1.082       .  S
C769        C774   1.381   1_655  A
C769        C770   1.401       .  A
C769        O775   1.317       .  A
C770        C771   1.400   1_554  A
C770        H781   1.083       .  S
C771        C780   1.359       .  A
C771        C772   1.381   1_655  A
C772        C773   1.405       .  A
C772        O778   1.320       .  A
C773        C774   1.404   1_556  A
C773        H782   1.083       .  S
C774        C777   1.364       .  A
O775        C776   1.329   1_655  A
C776        C777   1.392       .  A
C777        H783   1.083       .  S
O778        C779   1.332       .  A
C779        C780   1.389   1_455  A
C780        H784   1.083       .  S
C785        C790   1.381       .  A
C785        C786   1.402       .  A
C785        O791   1.317       .  A
C786        C787   1.401       .  A
C786        H797   1.082       .  S
C787        C796   1.360       .  A
C787        C788   1.381       .  A
C788        C789   1.403       .  A
C788        O794   1.318       .  A
C789        C790   1.402       .  A
C789        H798   1.082       .  S
C790        C793   1.362       .  A
O791        C792   1.330       .  A
C792        C793   1.390       .  A
C793        H799   1.082       .  S
O794        C795   1.330       .  A
C795        C796   1.390       .  A
C796        H800   1.082       .  S
C801        C806   1.380   1_545  A
C801        C802   1.403       .  A
C801        O807   1.319       .  A
C802        C803   1.402       .  A
C802        H813   1.080       .  S
C803        C812   1.360       .  A
C803        C804   1.380   1_545  A
C804        C805   1.402       .  A
C804        O810   1.318       .  A
C805        C806   1.401       .  A
C805        H814   1.080       .  S
C806        C809   1.359       .  A
O807        C808   1.330   1_545  A
C808        C809   1.390       .  A
C809        H815   1.081       .  S
O810        C811   1.330   1_565  A
C811        C812   1.391       .  A
C812        H816   1.082       .  S
C817        C822   1.381   1_655  A
C817        C818   1.402       .  A
C817        O823   1.318       .  A
C818        C819   1.401       .  A
C818        H829   1.083       .  S
C819        C828   1.360       .  A
C819        C820   1.380   1_655  A
C820        C821   1.404       .  A
C820        O826   1.320       .  A
C821        C822   1.404       .  A
C821        H830   1.083       .  S
C822        C825   1.363       .  A
O823        C824   1.330   1_655  A
C824        C825   1.392       .  A
C825        H831   1.083       .  S
O826        C827   1.331       .  A
C827        C828   1.390   1_455  A
C828        H832   1.083       .  S
C833        C838   1.381       .  A
C833        C834   1.399       .  A
C833        O839   1.316       .  A
C834        C835   1.398       .  A
C834        H845   1.082       .  S
C835        C844   1.356       .  A
C835        C836   1.380       .  A
C836        C837   1.406       .  A
C836        O842   1.322       .  A
C837        C838   1.406       .  A
C837        H846   1.082       .  S
C838        C841   1.364       .  A
O839        C840   1.328       .  A
C840        C841   1.394       .  A
C841        H847   1.082       .  S
O842        C843   1.333       .  A
C843        C844   1.389       .  A
C844        H848   1.083       .  S
C849        C854   1.380       .  A
C849        C850   1.407       .  A
C849        O855   1.321       .  A
C850        C851   1.406       .  A
C850        H861   1.082       .  S
C851        C860   1.366       .  A
C851        C852   1.381       .  A
C852        C853   1.399       .  A
C852        O858   1.315       .  A
C853        C854   1.398       .  A
C853        H862   1.082       .  S
C854        C857   1.358       .  A
O855        C856   1.333       .  A
C856        C857   1.388       .  A
C857        H863   1.083       .  S
O858        C859   1.328       .  A
C859        C860   1.393       .  A
C860        H864   1.082       .  S
C865        C870   1.381   1_665  A
C865        C866   1.401       .  A
C865        O871   1.316       .  A
C866        C867   1.400       .  A
C866        H877   1.083       .  S
C867        C876   1.360       .  A
C867        C868   1.381   1_665  A
C868        C869   1.402       .  A
C868        O874   1.317       .  A
C869        C870   1.401       .  A
C869        H878   1.083       .  S
C870        C873   1.360       .  A
O871        C872   1.329       .  A
C872        C873   1.390   1_665  A
C873        H879   1.083       .  S
O874        C875   1.330   1_445  A
C875        C876   1.390       .  A
C876        H880   1.083       .  S
C881        C886   1.380   1_565  A
C881        C882   1.405       .  A
C881        O887   1.320       .  A
C882        C883   1.404       .  A
C882        H893   1.082       .  S
C883        C892   1.364       .  A
C883        C884   1.381   1_565  A
C884        C885   1.401       .  A
C884        O890   1.317       .  A
C885        C886   1.400       .  A
C885        H894   1.082       .  S
C886        C889   1.358       .  A
O887        C888   1.332       .  A
C888        C889   1.390   1_565  A
C889        H895   1.083       .  S
O890        C891   1.329   1_545  A
C891        C892   1.392       .  A
C892        H896   1.082       .  S
C897        C902   1.380   1_545  A
C897        C898   1.406       .  A
C897        O903   1.320       .  A
C898        C899   1.405       .  A
C898        H909   1.082       .  S
C899        C908   1.364       .  A
C899        C900   1.381   1_545  A
C900        C901   1.400       .  A
C900        O906   1.316       .  A
C901        C902   1.399       .  A
C901        H910   1.082       .  S
C902        C905   1.358       .  A
O903        C904   1.332   1_545  A
C904        C905   1.389       .  A
C905        H911   1.082       .  S
O906        C907   1.329   1_565  A
C907        C908   1.393       .  A
C908        H912   1.082       .  S
C913        C918   1.381       .  A
C913        C914   1.402       .  A
C913        O919   1.318       .  A
C914        C915   1.402       .  A
C914        H925   1.083       .  S
C915        C924   1.360       .  A
C915        C916   1.381       .  A
C916        C917   1.403       .  A
C916        O922   1.319       .  A
C917        C918   1.402       .  A
C917        H926   1.083       .  S
C918        C921   1.361       .  A
O919        C920   1.330       .  A
C920        C921   1.391       .  A
C921        H927   1.083       .  S
O922        C923   1.331       .  A
C923        C924   1.391       .  A
C924        H928   1.083       .  S
C929        C934   1.381       .  A
C929        C930   1.403       .  A
C929        O935   1.318       .  A
C930        C931   1.402       .  A
C930        H941   1.082       .  S
C931        C940   1.361       .  A
C931        C932   1.381       .  A
C932        C933   1.403       .  A
C932        O938   1.318       .  A
C933        C934   1.402       .  A
C933        H942   1.082       .  S
C934        C937   1.361       .  A
O935        C936   1.330       .  A
C936        C937   1.391       .  A
C937        H943   1.082       .  S
O938        C939   1.329       .  A
C939        C940   1.389       .  A
C940        H944   1.082       .  S
C945        C950   1.381       .  A
C945        C946   1.402       .  A
C945        O951   1.318       .  A
C946        C947   1.401       .  A
C946        H957   1.082       .  S
C947        C956   1.360       .  A
C947        C948   1.381       .  A
C948        C949   1.403       .  A
C948        O954   1.318       .  A
C949        C950   1.402       .  A
C949        H958   1.082       .  S
C950        C953   1.361       .  A
O951        C952   1.330       .  A
C952        C953   1.391       .  A
C953        H959   1.083       .  S
O954        C955   1.330       .  A
C955        C956   1.391       .  A
C956        H960   1.083       .  S
C961        C966   1.381       .  A
C961        C962   1.403       .  A
C961        O967   1.319       .  A
C962        C963   1.402       .  A
C962        H973   1.083       .  S
C963        C972   1.360       .  A
C963        C964   1.381       .  A
C964        C965   1.403       .  A
C964        O970   1.319       .  A
C965        C966   1.402       .  A
C965        H974   1.082       .  S
C966        C969   1.361       .  A
O967        C968   1.331       .  A
C968        C969   1.391       .  A
C969        H975   1.083       .  S
O970        C971   1.331       .  A
C971        C972   1.391       .  A
C972        H976   1.083       .  S
C977        C982   1.380   1_545  A
C977        C978   1.404       .  A
C977        O983   1.320       .  A
C978        C979   1.404       .  A
C978        H989   1.082       .  S
C979        C988   1.363       .  A
C979        C980   1.381   1_545  A
C980        C981   1.402       .  A
C980        O986   1.318       .  A
C981        C982   1.401       .  A
C981        H990   1.082       .  S
C982        C985   1.360       .  A
O983        C984   1.331       .  A
C984        C985   1.391   1_545  A
C985        H991   1.082       .  S
O986        C987   1.330   1_565  A
C987        C988   1.392       .  A
C988        H992   1.082       .  S
C993        C998   1.381   1_565  A
C993        C994   1.404       .  A
C993        O999   1.319       .  A
C994        C995   1.403       .  A
C994       H1005   1.082       .  S
C995       C1004   1.363       .  A
C995        C996   1.381   1_565  A
C996        C997   1.401       .  A
C996       O1002   1.317       .  A
C997        C998   1.400       .  A
C997       H1006   1.082       .  S
C998       C1001   1.360       .  A
O999       C1000   1.331   1_565  A
C1000      C1001   1.389       .  A
C1001      H1007   1.082       .  S
O1002      C1003   1.329   1_545  A
C1003      C1004   1.391       .  A
C1004      H1008   1.083       .  S
C1009      C1014   1.381   1_655  A
C1009      C1010   1.401       .  A
C1009      O1015   1.318       .  A
C1010      C1011   1.401       .  A
C1010      H1021   1.083       .  S
C1011      C1020   1.359       .  A
C1011      C1012   1.381   1_655  A
C1012      C1013   1.404       .  A
C1012      O1018   1.319       .  A
C1013      C1014   1.403       .  A
C1013      H1022   1.083       .  S
C1014      C1017   1.362       .  A
O1015      C1016   1.330   1_655  A
C1016      C1017   1.392       .  A
C1017      H1023   1.083       .  S
O1018      C1019   1.331       .  A
C1019      C1020   1.390   1_455  A
C1020      H1024   1.083       .  S
C1025      C1030   1.381   1_455  A
C1025      C1026   1.402       .  A
C1025      O1031   1.319       .  A
C1026      C1027   1.402       .  A
C1026      H1037   1.082       .  S
C1027      C1036   1.360       .  A
C1027      C1028   1.381   1_455  A
C1028      C1029   1.402       .  A
C1028      O1034   1.319       .  A
C1029      C1030   1.402       .  A
C1029      H1038   1.082       .  S
C1030      C1033   1.359       .  A
O1031      C1032   1.330       .  A
C1032      C1033   1.391   1_455  A
C1033      H1039   1.082       .  S
O1034      C1035   1.330   1_655  A
C1035      C1036   1.388       .  A
C1036      H1040   1.082       .  S
C1041      C1046   1.380   1_455  A
C1041      C1042   1.406       .  A
C1041      O1047   1.320       .  A
C1042      C1043   1.405       .  A
C1042      H1053   1.082       .  S
C1043      C1052   1.364       .  A
C1043      C1044   1.381   1_455  A
C1044      C1045   1.400       .  A
C1044      O1050   1.315       .  A
C1045      C1046   1.399       .  A
C1045      H1054   1.083       .  S
C1046      C1049   1.358       .  A
O1047      C1048   1.332       .  A
C1048      C1049   1.389   1_455  A
C1049      H1055   1.083       .  S
O1050      C1051   1.329   1_655  A
C1051      C1052   1.393       .  A
C1052      H1056   1.083       .  S
C1057      C1062   1.380   1_655  A
C1057      C1058   1.406       .  A
C1057      O1063   1.322       .  A
C1058      C1059   1.406       .  A
C1058      H1069   1.082       .  S
C1059      C1068   1.364       .  A
C1059      C1060   1.381   1_655  A
C1060      C1061   1.399       .  A
C1060      O1066   1.317       .  A
C1061      C1062   1.399       .  A
C1061      H1070   1.082       .  S
C1062      C1065   1.357       .  A
O1063      C1064   1.333       .  A
C1064      C1065   1.389   1_655  A
C1065      H1071   1.083       .  S
O1066      C1067   1.329   1_455  A
C1067      C1068   1.393       .  A
C1068      H1072   1.083       .  S
C1073      C1078   1.380   1_445  A
C1073      C1074   1.403       .  A
C1073      O1079   1.318       .  A
C1074      C1075   1.402       .  A
C1074      H1085   1.082       .  S
C1075      C1084   1.361       .  A
C1075      C1076   1.381   1_445  A
C1076      C1077   1.403       .  A
C1076      O1082   1.319       .  A
C1077      C1078   1.402       .  A
C1077      H1086   1.082       .  S
C1078      C1081   1.362       .  A
O1079      C1080   1.331   1_545  A
C1080      C1081   1.391   1_455  A
C1081      H1087   1.082       .  S
O1082      C1083   1.330   1_655  A
C1083      C1084   1.391   1_565  A
C1084      H1088   1.082       .  S
C1089      C1094   1.381   1_665  A
C1089      C1090   1.403       .  A
C1089      O1095   1.318       .  A
C1090      C1091   1.402       .  A
C1090      H1101   1.082       .  S
C1091      C1100   1.361       .  A
C1091      C1092   1.381   1_665  A
C1092      C1093   1.400       .  A
C1092      O1098   1.316       .  A
C1093      C1094   1.399       .  A
C1093      H1102   1.082       .  S
C1094      C1097   1.358       .  A
O1095      C1096   1.330       .  A
C1096      C1097   1.388   1_665  A
C1097      H1103   1.082       .  S
O1098      C1099   1.328   1_445  A
C1099      C1100   1.391       .  A
C1100      H1104   1.082       .  S
