geometry optimzed in LAMMPS
_audit_creation_date              2020-12-01 
_audit_creation_method            'lammps2cif' 
_symmetry_space_group_name_H-M    'P1' 
_symmetry_Int_Tables_number       1 
_symmetry_cell_setting            triclinic 
loop_ 
_symmetry_equiv_pos_as_xyz 
  x,y,z 
_cell_length_a                    31.65250251 
_cell_length_b                    31.636766403761545 
_cell_length_c                    25.727389084246248 
_cell_angle_alpha                 89.95966686701844 
_cell_angle_beta                  90.10261614155347 
_cell_angle_gamma                 120.06682811188399 
loop_ 
_atom_site_label 
_atom_site_type_symbol 
_atom_site_fract_x 
_atom_site_fract_y 
_atom_site_fract_z 
_atom_site_charge 
C1          C  0.02504469  0.97458968  0.24791096     0.84300
N2          N  0.05002102  0.02418016  0.24785844    -0.74000
C3          C  0.02548033  0.04915901  0.24845176     0.86800
N4          N  0.97593155  0.02450843  0.24912888    -0.73900
C5          C  0.95090836  0.97492908  0.24918509     0.86900
N6          N  0.97548419  0.94998221  0.24858401    -0.75600
C7          C  0.30880887  0.69270103  0.24950087     0.07200
C8          C  0.28272080  0.64162807  0.24995096    -0.08900
C9          C  0.30778901  0.61570003  0.25126887     0.04700
C10         C  0.35885184  0.64074045  0.25211308    -0.07400
C11         C  0.38481753  0.69182696  0.25164844     0.07200
C12         C  0.35984979  0.71785755  0.25031609    -0.06900
H13         H  0.24311680  0.62216456  0.24936458     0.12800
H14         H  0.37826207  0.62059104  0.25313580     0.10400
H15         H  0.38003000  0.75747837  0.25000816     0.10200
C16         C  0.69374110  0.63463538  0.10826186     0.07200
C17         C  0.68455162  0.58940863  0.12748709    -0.08900
C18         C  0.69469868  0.55898344  0.09684103     0.04700
C19         C  0.71409786  0.57397767  0.04677818    -0.07400
C20         C  0.72327147  0.61934852  0.02746070     0.07200
C21         C  0.71302858  0.64954911  0.05827617    -0.06900
H22         H  0.66999655  0.57813670  0.16638379     0.12800
H23         H  0.72239365  0.55068802  0.02319657     0.10400
H24         H  0.72040619  0.68474004  0.04357633     0.10200
Zn25       Zn  0.23598088  0.86123198  0.26672000     1.49700
Zn26       Zn  0.13232249  0.83954224  0.30846521     1.49400
Zn27       Zn  0.15996731  0.86660857  0.18904387     1.49100
Zn28       Zn  0.13914784  0.76346191  0.23226706     1.49500
O29         O  0.16679470  0.83271459  0.24910282    -1.80000
O30         O  0.24714263  0.87630863  0.34317341    -0.70600
O31         O  0.10583284  0.88429667  0.29114906    -0.70500
O32         O  0.22482278  0.92462407  0.17071138    -0.70000
O33         O  0.17522791  0.86230191  0.37278306    -0.70700
O34         O  0.27840069  0.92239439  0.22519844    -0.70300
O35         O  0.11489673  0.89290308  0.20513773    -0.70800
O36         O  0.12270887  0.75124956  0.15612129    -0.70200
O37         O  0.07470180  0.77448024  0.32708771    -0.71000
O38         O  0.13740392  0.82312060  0.12529326    -0.70400
O39         O  0.07903658  0.72054483  0.27510755    -0.70800
O40         O  0.18871652  0.74264922  0.24402776    -0.70800
O41         O  0.25837688  0.81304954  0.25386840    -0.70500
C42         C  0.21962572  0.87424094  0.38018965     0.81200
C43         C  0.09912713  0.89981544  0.24796557     0.81700
C44         C  0.26806109  0.94215157  0.18795292     0.80700
C45         C  0.12490431  0.77847841  0.11863902     0.81100
C46         C  0.05847816  0.73094906  0.31137868     0.82200
C47         C  0.23488438  0.76688795  0.24875880     0.81300
C48         C  0.36677011  0.06193981  0.10790416     0.07200
C49         C  0.41209913  0.09819620  0.12681267    -0.08900
C50         C  0.44232297  0.13867829  0.09581852     0.04700
C51         C  0.42702256  0.14277531  0.04575348    -0.07400
C52         C  0.38155321  0.10637927  0.02679606     0.07200
C53         C  0.35156765  0.06604846  0.05793792    -0.06900
H54         H  0.42364632  0.09510823  0.16565778     0.12800
H55         H  0.45019481  0.17420583  0.02183236     0.10400
H56         H  0.31635691  0.03800573  0.04341032     0.10200
C57         C  0.94026004  0.63143379  0.39301676     0.07200
C58         C  0.90423714  0.58597219  0.37413939    -0.08900
C59         C  0.86389668  0.55544064  0.40511522     0.04700
C60         C  0.85972594  0.57059801  0.45519405    -0.07400
C61         C  0.89588769  0.61620222  0.47419358     0.07200
C62         C  0.93608589  0.64647388  0.44302415    -0.06900
H63         H  0.90734550  0.57458126  0.33524152     0.12800
H64         H  0.82833033  0.54724896  0.47904371     0.10400
H65         H  0.96386338  0.68182824  0.45747197     0.10200
Zn66       Zn  0.66098182  0.27362981  0.22334722     1.49700
Zn67       Zn  0.66682870  0.33444418  0.32600439     1.49400
Zn68       Zn  0.72785725  0.38984015  0.22387263     1.49100
Zn69       Zn  0.61145474  0.34029604  0.22397772     1.49500
O70         O  0.66677871  0.33454120  0.24937432    -1.80000
O71         O  0.66328776  0.23328558  0.28280044    -0.70600
O72         O  0.72330447  0.39759909  0.35415716    -0.70500
O73         O  0.76793260  0.36737233  0.18311719    -0.70000
O74         O  0.67354500  0.27799175  0.35359621    -0.70700
O75         O  0.71833594  0.28692646  0.17788112    -0.70300
O76         O  0.76799416  0.43251888  0.28355185    -0.70800
O77         O  0.63411557  0.40313666  0.18379994    -0.70200
O78         O  0.60368577  0.32743943  0.35413818    -0.71000
O79         O  0.71449494  0.43384219  0.17837820    -0.70400
O80         O  0.56862237  0.33719238  0.28355333    -0.70800
O81         O  0.56755980  0.28338814  0.17782975    -0.70800
O82         O  0.59846174  0.23387691  0.18233056    -0.70500
C83         C  0.67027649  0.24045566  0.33149364     0.81200
C84         C  0.76082901  0.43210609  0.33224563     0.81700
C85         C  0.75845963  0.32536115  0.16733762     0.80700
C86         C  0.67611350  0.43563112  0.16798270     0.81100
C87         C  0.56909764  0.33031609  0.33222928     0.82200
C88         C  0.56592764  0.24341598  0.16676807     0.81300
Zn89       Zn  0.70872876  0.86970862  0.31070020     1.49700
Zn90       Zn  0.62673905  0.76571103  0.26954356     1.49400
Zn91       Zn  0.62511410  0.86189301  0.23462327     1.49100
Zn92       Zn  0.70756897  0.84195638  0.19119117     1.49500
O93         O  0.66710998  0.83482943  0.25148915    -1.80000
O94         O  0.68848977  0.82742018  0.37548462    -0.70600
O95         O  0.55590733  0.74310974  0.25780147    -0.70500
O96         O  0.64343130  0.92289714  0.27602069    -0.70000
O97         O  0.63171361  0.75473150  0.34594638    -0.70700
O98         O  0.70220148  0.92806237  0.32797006    -0.70300
O99         O  0.55487149  0.81254016  0.24779783    -0.70800
O100        O  0.68672302  0.86493367  0.12750928    -0.70200
O101        O  0.64472281  0.72334997  0.22707267    -0.71000
O102        O  0.62810802  0.87720376  0.15836457    -0.70400
O103        O  0.69989724  0.77698743  0.17217355    -0.70800
O104        O  0.77915250  0.88635501  0.20760301    -0.70800
O105        O  0.77984223  0.89526711  0.29366391    -0.70500
C106        C  0.65677481  0.78274264  0.38297776     0.81200
C107        C  0.53306720  0.76640163  0.25292806     0.81700
C108        C  0.67498738  0.94418544  0.31172170     0.80700
C109        C  0.65363409  0.87611247  0.12088360     0.81100
C110        C  0.67422239  0.73371287  0.18931063     0.82200
C111        C  0.80196367  0.90176682  0.25051708     0.81300
C112        C  0.69394575  0.06335921  0.39117358     0.07200
C113        C  0.68360336  0.09873974  0.37242096    -0.08900
C114        C  0.69228034  0.13853093  0.40376478     0.04700
C115        C  0.71137580  0.14280585  0.45403856    -0.07400
C116        C  0.72173161  0.10726148  0.47281440     0.07200
C117        C  0.71297313  0.06764079  0.44130179    -0.06900
H118        H  0.66914605  0.09549043  0.33343207     0.12800
H119        H  0.71839880  0.17370698  0.47823499     0.10400
H120        H  0.72107577  0.04024219  0.45569414     0.10200
C121        C  0.37003630  0.30994714  0.39380668     0.07200
C122        C  0.41518252  0.31910587  0.37447839    -0.08900
C123        C  0.44622797  0.31002391  0.40553592     0.04700
C124        C  0.43188933  0.29168021  0.45609067    -0.07400
C125        C  0.38659230  0.28250311  0.47545557     0.07200
C126        C  0.35584682  0.29175751  0.44426918    -0.06900
H127        H  0.42593029  0.33282706  0.33524227     0.12800
H128        H  0.45561797  0.28419402  0.48003250     0.10400
H129        H  0.32074681  0.28441194  0.45908079     0.10200
Zn130      Zn  0.23625291  0.37509899  0.23396973     1.49700
Zn131      Zn  0.16052032  0.29170004  0.30962436     1.49400
Zn132      Zn  0.13837438  0.37370051  0.26782861     1.49100
Zn133      Zn  0.13321844  0.29253722  0.19007959     1.49500
O134        O  0.16700009  0.33314361  0.25034941    -1.80000
O135        O  0.27927964  0.35787671  0.27641082    -0.70600
O136        O  0.13746425  0.31142869  0.37373376    -0.70500
O137        O  0.18695449  0.44463923  0.25656254    -0.70000
O138        O  0.22569813  0.29945991  0.32852615    -0.70700
O139        O  0.25720487  0.44540369  0.24642926    -0.70300
O140        O  0.12221824  0.36857416  0.34402463    -0.70800
O141        O  0.07561723  0.29989853  0.17077468    -0.70200
O142        O  0.11601518  0.22037985  0.29221008    -0.71000
O143        O  0.07803463  0.35589903  0.22497680    -0.70400
O144        O  0.10660373  0.22098299  0.20630277    -0.70800
O145        O  0.17714046  0.31363560  0.12673949    -0.70800
O146        O  0.24855811  0.37149154  0.15798043    -0.70500
C147        C  0.26913106  0.32693450  0.31270400     0.81200
C148        C  0.12476620  0.34330626  0.38104748     0.81700
C149        C  0.23310773  0.46735987  0.25166112     0.80700
C150        C  0.05842192  0.32601386  0.18750620     0.81100
C151        C  0.10011519  0.19820206  0.24906618     0.82200
C152        C  0.22165070  0.34629286  0.12037947     0.81300
C153        C  0.93943629  0.30713051  0.10682001     0.07200
C154        C  0.90364956  0.31652750  0.12629103    -0.08900
C155        C  0.86291709  0.30658635  0.09580218     0.04700
C156        C  0.85813731  0.28719509  0.04563222    -0.07400
C157        C  0.89404676  0.27780473  0.02607585     0.07200
C158        C  0.93462240  0.28786664  0.05673759    -0.06900
H159        H  0.90723330  0.33106420  0.16522782     0.12800
H160        H  0.82649463  0.27910201  0.02212435     0.10400
H161        H  0.96222757  0.28038419  0.04180114     0.10200
C162        C  0.97361065  0.02324037  0.75061339     0.84300
N163        N  0.94987753  0.97366996  0.75101723    -0.74000
C164        C  0.97561828  0.94989625  0.75063564     0.86800
N165        N  0.02516772  0.97575459  0.74982602    -0.73900
C166        C  0.04898973  0.02533916  0.74939759     0.86900
N167        N  0.02317717  0.04905476  0.74979380    -0.75600
Zn168      Zn  0.37329646  0.13910318  0.76745354     1.49700
Zn169      Zn  0.37563743  0.23766716  0.73494994     1.49400
Zn170      Zn  0.29257744  0.13543633  0.68978441     1.49100
Zn171      Zn  0.29161405  0.16112126  0.80971896     1.49500
O172        O  0.33312723  0.16825030  0.75041897    -1.80000
O173        O  0.44424391  0.18730029  0.75652300    -0.70600
O174        O  0.37280156  0.25107667  0.65899952    -0.70500
O175        O  0.29969589  0.07778177  0.66971182    -0.70000
O176        O  0.44572368  0.25810843  0.74826183    -0.70700
O177        O  0.35514914  0.07913003  0.72411338    -0.70300
O178        O  0.31426824  0.18036263  0.62705172    -0.70800
O179        O  0.22029513  0.11673699  0.79201911    -0.70200
O180        O  0.35821363  0.28023756  0.77763193    -0.71000
O181        O  0.22090394  0.10878123  0.70591198    -0.70400
O182        O  0.29939458  0.22617570  0.82905491    -0.70800
O183        O  0.31132807  0.13753830  0.87362638    -0.70800
O184        O  0.36823440  0.12229967  0.84345830    -0.70500
C185        C  0.46730460  0.23356615  0.75279070     0.81200
C186        C  0.34742947  0.22478454  0.62112659     0.81700
C187        C  0.32544905  0.06009258  0.68638648     0.80700
C188        C  0.19810083  0.10154136  0.74874927     0.81100
C189        C  0.32703199  0.26975962  0.81364838     0.82200
C190        C  0.34311854  0.12466436  0.88064755     0.81300
C191        C  0.30917921  0.37004226  0.89442250     0.07200
C192        C  0.28974572  0.35522012  0.94431965    -0.08900
C193        C  0.27996691  0.38570768  0.97517310     0.04700
C194        C  0.28981578  0.43134770  0.95605542    -0.07400
C195        C  0.30939757  0.44628765  0.90605627     0.07200
C196        C  0.31905396  0.41553645  0.87532311    -0.06900
H197        H  0.28189172  0.31985041  0.95895399     0.12800
H198        H  0.28191703  0.45487838  0.97974324     0.10400
H199        H  0.33372356  0.42675594  0.83647678     0.10200
C200        C  0.06205576  0.36439254  0.60873477     0.07200
C201        C  0.09783365  0.40978559  0.62805282    -0.08900
C202        C  0.13821069  0.44072680  0.59731582     0.04700
C203        C  0.14267723  0.42603389  0.54711154    -0.07400
C204        C  0.10676023  0.38050817  0.52776345     0.07200
C205        C  0.06655447  0.34982447  0.55864759    -0.06900
H206        H  0.09439614  0.42088130  0.66697178     0.12800
H207        H  0.17398033  0.44976696  0.52334909     0.10400
H208        H  0.03884820  0.31461675  0.54377722     0.10200
Zn209      Zn  0.86551332  0.15747981  0.69029595     1.49700
Zn210      Zn  0.86090689  0.23489132  0.76639474     1.49400
Zn211      Zn  0.76288669  0.13818453  0.73278640     1.49100
Zn212      Zn  0.83847201  0.13140226  0.81007273     1.49500
O213        O  0.83199027  0.16542016  0.74990644    -1.80000
O214        O  0.92428278  0.22182293  0.67178891    -0.70600
O215        O  0.81285927  0.25752429  0.75359913    -0.70500
O216        O  0.75077247  0.12233083  0.65655107    -0.70000
O217        O  0.92179853  0.27643688  0.72432267    -0.70700
O218        O  0.82223965  0.13565533  0.62619946    -0.70300
O219        O  0.74235227  0.18781272  0.74483803    -0.70800
O220        O  0.77299282  0.07472410  0.82941906    -0.70200
O221        O  0.87674332  0.24708636  0.84263148    -0.71000
O222        O  0.71963759  0.07830309  0.77568980    -0.70400
O223        O  0.86208236  0.17530528  0.87365434    -0.70800
O224        O  0.88237475  0.10365069  0.79353039    -0.70800
O225        O  0.89070112  0.11155593  0.70739190    -0.70500
C226        C  0.94177844  0.26538565  0.68801693     0.81200
C227        C  0.76664512  0.23400502  0.74923601     0.81700
C228        C  0.77791259  0.12419213  0.61922773     0.80700
C229        C  0.72963062  0.05836924  0.81304104     0.81100
C230        C  0.87456207  0.21996637  0.88020971     0.82200
C231        C  0.89755354  0.09614648  0.75058420     0.81300
C232        C  0.06355375  0.69512837  0.89006846     0.07200
C233        C  0.06738377  0.71385199  0.94027553    -0.08900
C234        C  0.10647017  0.72191486  0.97243865     0.04700
C235        C  0.14182586  0.71112388  0.95428023    -0.07400
C236        C  0.13794016  0.69228542  0.90402052     0.07200
C237        C  0.09875567  0.68431573  0.87201901    -0.06900
H238        H  0.04012748  0.72229950  0.95418910     0.12800
H239        H  0.17232856  0.71766986  0.97894288     0.10400
H240        H  0.09585948  0.67006594  0.83302235     0.10200
Zn241      Zn  0.27209487  0.66039320  0.72426812     1.49700
Zn242      Zn  0.38825220  0.72794172  0.72451866     1.49400
Zn243      Zn  0.33352154  0.66673958  0.82663379     1.49100
Zn244      Zn  0.33943188  0.61162727  0.72456812     1.49500
O245        O  0.33329658  0.66665955  0.75003310    -1.80000
O246        O  0.28486956  0.71794534  0.67912447    -0.70600
O247        O  0.43110514  0.76806390  0.78406408    -0.70500
O248        O  0.27724282  0.67334317  0.85449367    -0.70000
O249        O  0.36522302  0.76796495  0.68450093    -0.70700
O250        O  0.23199318  0.66246115  0.78392289    -0.70300
O251        O  0.39655466  0.72321077  0.85468655    -0.70800
O252        O  0.33701465  0.56905958  0.78419404    -0.70200
O253        O  0.43228165  0.71507107  0.67867845    -0.71000
O254        O  0.32686940  0.60376507  0.85473659    -0.70400
O255        O  0.40218250  0.63473534  0.68417532    -0.70800
O256        O  0.28230334  0.56723777  0.67886731    -0.70800
O257        O  0.23236101  0.59760850  0.68347622    -0.70500
C258        C  0.32311865  0.75836333  0.66891026     0.81200
C259        C  0.43086874  0.76083783  0.83273847     0.81700
C260        C  0.23948966  0.66973712  0.83254257     0.80700
C261        C  0.33009558  0.56940930  0.83285009     0.81100
C262        C  0.43440977  0.67686670  0.66831840     0.82200
C263        C  0.24208944  0.56518441  0.66802275     0.81300
Zn264      Zn  0.79051543  0.62456836  0.69632917     1.49700
Zn265      Zn  0.80928587  0.70741778  0.77881099     1.49400
Zn266      Zn  0.83595424  0.62524956  0.80599636     1.49100
Zn267      Zn  0.90009186  0.70671647  0.72220505     1.49500
O268        O  0.83423806  0.66650669  0.75078921    -1.80000
O269        O  0.74150850  0.64424615  0.67626058    -0.70600
O270        O  0.78397635  0.68752320  0.85301887    -0.70500
O271        O  0.79887075  0.55457936  0.78647350    -0.70000
O272        O  0.75411267  0.70195448  0.73380495    -0.70700
O273        O  0.75594241  0.55418924  0.71763392    -0.70300
O274        O  0.80340025  0.63038838  0.87016753    -0.70800
O275        O  0.94967418  0.70052518  0.76664593    -0.70200
O276        O  0.86227273  0.77850290  0.77591106    -0.71000
O277        O  0.90446583  0.64409202  0.82529460    -0.70400
O278        O  0.91942000  0.77818504  0.72539640    -0.70800
O279        O  0.90449810  0.68619507  0.64790957    -0.70800
O280        O  0.82782667  0.62822627  0.63217975    -0.70500
C281        C  0.73182758  0.67575233  0.69448811     0.81200
C282        C  0.78439495  0.65582326  0.88332876     0.81700
C283        C  0.76603148  0.53205274  0.75238716     0.80700
C284        C  0.94566379  0.67470849  0.80631611     0.81100
C285        C  0.90222422  0.80080169  0.75073846     0.82200
C286        C  0.87211587  0.65376844  0.61831832     0.81300
C287        C  0.63544401  0.69854840  0.61126528     0.07200
C288        C  0.65034499  0.71777022  0.56120900    -0.08900
C289        C  0.61968071  0.72697084  0.52973510     0.04700
C290        C  0.57388802  0.71683072  0.54847008    -0.07400
C291        C  0.55889033  0.69751872  0.59856878     0.07200
C292        C  0.58974972  0.68839691  0.62985734    -0.06900
H293        H  0.68576157  0.72568460  0.54686402     0.12800
H294        H  0.55019274  0.72419602  0.52433480     0.10400
H295        H  0.57837702  0.67376575  0.66871400     0.10200
C296        C  0.62938447  0.94075894  0.89488701     0.07200
C297        C  0.58406532  0.90479653  0.87566963    -0.08900
C298        C  0.55366283  0.86401813  0.90620026     0.04700
C299        C  0.56876079  0.85934869  0.95617491    -0.07400
C300        C  0.61420292  0.89547533  0.97549772     0.07200
C301        C  0.64435113  0.93613349  0.94480558    -0.06900
H302        H  0.57275032  0.90822890  0.83680737     0.12800
H303        H  0.54550929  0.82762210  0.97967095     0.10400
H304        H  0.67959475  0.96388034  0.95951976     0.10200
C305        C  0.30587768  0.94034763  0.60679708     0.07200
C306        C  0.31489452  0.90451700  0.62716086    -0.08900
C307        C  0.30448910  0.86323542  0.59745560     0.04700
C308        C  0.28504863  0.85796474  0.54722131    -0.07400
C309        C  0.27609074  0.89391703  0.52678704     0.07200
C310        C  0.28658823  0.93503120  0.55662776    -0.06900
H311        H  0.32949911  0.90850862  0.66616049     0.12800
H312        H  0.27665022  0.82593787  0.52430981     0.10400
H313        H  0.27943633  0.96268369  0.54098069     0.10200
C314        C  0.69232988  0.30773542  0.75200522     0.07200
C315        C  0.71760787  0.35878590  0.75264754    -0.08900
C316        C  0.69172595  0.38388112  0.75385895     0.04700
C317        C  0.64069363  0.35808035  0.75455486    -0.07400
C318        C  0.61551848  0.30701676  0.75391667     0.07200
C319        C  0.64126778  0.28175930  0.75265095    -0.06900
H320        H  0.75721472  0.37888744  0.75203134     0.12800
H321        H  0.62068645  0.37763836  0.75535125     0.10400
H322        H  0.62170081  0.24215258  0.75203270     0.10200
C323        C  0.71757974  0.43614082  0.75373158    -0.09200
C324        C  0.73957130  0.47998386  0.75317096    -0.10700
C325        C  0.66738765  0.68965613  0.64354796    -0.09200
C326        C  0.69572501  0.68291112  0.66856625    -0.10700
C327        C  0.51263279  0.68841438  0.61893728    -0.09200
C328        C  0.47562764  0.68202328  0.63952883    -0.10700
C329        C  0.47143760  0.79596121  0.86325097    -0.09200
C330        C  0.50792411  0.82640857  0.88499600    -0.10700
C331        C  0.31247252  0.82577820  0.61939361    -0.09200
C332        C  0.31817172  0.79481019  0.64039428    -0.10700
C333        C  0.17474738  0.68255904  0.88406028    -0.09200
C334        C  0.20469910  0.67556793  0.86289677    -0.10700
C335        C  0.02350972  0.68732275  0.85712750    -0.09200
C336        C  0.98882566  0.68130186  0.83187683    -0.10700
C337        C  0.71882757  0.28202888  0.75054977    -0.09200
C338        C  0.74094730  0.26034851  0.74963492    -0.10700
C339        C  0.66149396  0.98175743  0.86298647    -0.09200
C340        C  0.69104510  0.01643948  0.83838800    -0.10700
C341        C  0.02070279  0.33226780  0.64013734    -0.09200
C342        C  0.98510905  0.30304260  0.66377222    -0.10700
C343        C  0.17542811  0.48686111  0.61821664    -0.09200
C344        C  0.20600810  0.52387073  0.63908123    -0.10700
C345        C  0.31810986  0.49224698  0.88505361    -0.09200
C346        C  0.32449932  0.52885414  0.86338972    -0.10700
C347        C  0.51939129  0.25892815  0.75361991    -0.09200
C348        C  0.56323990  0.28061183  0.75399369    -0.10700
C349        C  0.32083658  0.01750355  0.66125030    -0.09200
C350        C  0.31510561  0.98212830  0.63756492    -0.10700
C351        C  0.32302990  0.30809109  0.83853714    -0.09200
C352        C  0.31777185  0.33774289  0.86266257    -0.10700
C353        C  0.95037708  0.89739330  0.75084409    -0.09200
C354        C  0.92868673  0.85330400  0.75083282    -0.10700
C355        C  0.94628235  0.04836945  0.75086240    -0.09200
C356        C  0.92367930  0.06981138  0.75086973    -0.10700
C357        C  0.10149789  0.05265420  0.74863729    -0.09200
C358        C  0.14558570  0.07517275  0.74836451    -0.10700
C359        C  0.88914059  0.25726044  0.97484628    -0.09200
C360        C  0.88417650  0.24003395  0.93186516    -0.10700
C361        C  0.11548551  0.35312866  0.43300780    -0.09200
C362        C  0.11103429  0.36504273  0.47629899    -0.10700
C363        C  0.25920020  0.36965386  0.02612652    -0.09200
C364        C  0.24179788  0.35701826  0.06890751    -0.10700
C365        C  0.01585336  0.32167493  0.16252709    -0.09200
C366        C  0.98071494  0.31607313  0.13839738    -0.10700
C367        C  0.37100146  0.26262712  0.52687603    -0.09200
C368        C  0.35848183  0.24543170  0.56979957    -0.10700
C369        C  0.33747289  0.31806985  0.36176133    -0.09200
C370        C  0.30766357  0.32308622  0.33751434    -0.10700
C371        C  0.74166442  0.11137643  0.52422999    -0.09200
C372        C  0.75834695  0.11549228  0.56738089    -0.10700
C373        C  0.63536694  0.74705274  0.47834451    -0.09200
C374        C  0.64709411  0.76364346  0.43505380    -0.10700
C375        C  0.63037239  0.89061884  0.02647017    -0.09200
C376        C  0.64292853  0.88562105  0.06929865    -0.10700
C377        C  0.68551277  0.02261962  0.35917892    -0.09200
C378        C  0.67982548  0.98734061  0.33544239    -0.10700
C379        C  0.52849044  0.32450957  0.36276633    -0.09200
C380        C  0.49196090  0.31825508  0.38442095    -0.10700
C381        C  0.68288312  0.17545520  0.38319987    -0.09200
C382        C  0.67606507  0.20550343  0.36180854    -0.10700
C383        C  0.82547695  0.31484555  0.11710044    -0.09200
C384        C  0.79470778  0.32066737  0.13825635    -0.10700
C385        C  0.88517154  0.64449825  0.56781287    -0.09200
C386        C  0.89128485  0.63243442  0.52521252    -0.10700
C387        C  0.79587892  0.47276143  0.36277671    -0.09200
C388        C  0.82629024  0.50944043  0.38431391    -0.10700
C389        C  0.36537923  0.11045087  0.97556953    -0.09200
C390        C  0.35309260  0.11502367  0.93245794    -0.10700
C391        C  0.48823628  0.17646475  0.11647164    -0.09200
C392        C  0.52497226  0.20733084  0.13746246    -0.10700
C393        C  0.11526666  0.75859975  0.06695372    -0.09200
C394        C  0.11051869  0.74178653  0.02382171    -0.10700
C395        C  0.25575244  0.88861092  0.47538259    -0.09200
C396        C  0.23895334  0.88355442  0.43215975    -0.10700
C397        C  0.01603285  0.69266348  0.33635319    -0.09200
C398        C  0.98113199  0.66338895  0.36088571    -0.10700
C399        C  0.33520077  0.02069527  0.13977560    -0.09200
C400        C  0.30610535  0.98526426  0.16374823    -0.10700
C401        C  0.74409985  0.63538664  0.97645197    -0.09200
C402        C  0.76221725  0.64716394  0.93382488    -0.10700
C403        C  0.68084456  0.47663068  0.13897579    -0.09200
C404        C  0.68661694  0.51325690  0.11788914    -0.10700
C405        C  0.67865740  0.69564900  0.16439704    -0.09200
C406        C  0.68452004  0.66649272  0.14004447    -0.10700
C407        C  0.25891667  0.51949966  0.25188286    -0.09200
C408        C  0.28109990  0.56338213  0.25172814    -0.10700
C409        C  0.48096128  0.73973862  0.25296299    -0.09200
C410        C  0.43710360  0.71762846  0.25251613    -0.10700
C411        C  0.28315221  0.71927838  0.24866072    -0.07600
C412        C  0.26129712  0.74124264  0.24847454    -0.10700
C413        C  0.85440544  0.92733835  0.25022619    -0.09200
C414        C  0.89845251  0.94892179  0.24982946    -0.10700
C415        C  0.07395437  0.14572446  0.24865339    -0.09200
C416        C  0.05190448  0.10164865  0.24848860    -0.10700
C417        C  0.07295493  0.92605421  0.24758341    -0.09200
C418        C  0.05105593  0.94817648  0.24755433    -0.10700
loop_ 
_geom_bond_atom_site_label_1 
_geom_bond_atom_site_label_2 
_geom_bond_distance 
_geom_bond_site_symmetry_2 
_ccdc_geom_bond_type 
C1            N2   1.358   1_565  A
C1            N6   1.358   1_455  A
C1          C418   1.437       .  S
N2            C3   1.358       .  A
C3            N4   1.357   1_455  A
C3          C416   1.437       .  S
N4            C5   1.357   1_545  A
C5            N6   1.358       .  A
C5          C414   1.437       .  S
C7          C411   1.432       .  S
C7            C8   1.399       .  A
C7           C12   1.398       .  A
C8            C9   1.398       .  A
C8           H13   1.085       .  S
C9          C408   1.433       .  S
C9           C10   1.399       .  A
C10          C11   1.399       .  A
C10          H14   1.085       .  S
C11         C410   1.432       .  S
C11          C12   1.399       .  A
C12          H15   1.085       .  S
C16         C406   1.437       .  S
C16          C17   1.400       .  A
C16          C21   1.401       .  A
C17          C18   1.401       .  A
C17          H22   1.085       .  S
C18         C404   1.442       .  S
C18          C19   1.404       .  A
C19          C20   1.405       .  A
C19          H23   1.084       .  S
C20         C401   1.443   1_554  S
C20          C21   1.400       .  A
C21          H24   1.085       .  S
Zn25         O29   1.958       .  S
Zn25         O30   2.013       .  S
Zn25         O34   2.022       .  S
Zn25         O41   2.005       .  S
Zn26         O29   1.953       .  S
Zn26         O31   2.023       .  S
Zn26         O33   2.028       .  S
Zn26         O37   2.008       .  S
Zn27         O29   1.953       .  S
Zn27         O32   2.008       .  S
Zn27         O35   2.022       .  S
Zn27         O38   2.027       .  S
Zn28         O29   1.958       .  S
Zn28         O36   2.013       .  S
Zn28         O39   2.024       .  S
Zn28         O40   2.005       .  S
O30          C42   1.271       .  A
O31          C43   1.274       .  A
O32          C44   1.271       .  A
O33          C42   1.273       .  A
O34          C44   1.272       .  A
O35          C43   1.274       .  A
O36          C45   1.271       .  A
O37          C46   1.271       .  A
O38          C45   1.273       .  A
O39          C46   1.273       .  A
O40          C47   1.271       .  A
O41          C47   1.271       .  A
C42         C396   1.437       .  S
C43         C417   1.437       .  S
C44         C400   1.433       .  S
C45         C393   1.437       .  S
C46         C397   1.434       .  S
C47         C412   1.427       .  S
C48         C399   1.438       .  S
C48          C49   1.400       .  A
C48          C53   1.400       .  A
C49          C50   1.402       .  A
C49          H54   1.085       .  S
C50         C391   1.442       .  S
C50          C51   1.404       .  A
C51          C52   1.405       .  A
C51          H55   1.084       .  S
C52         C389   1.442   1_554  S
C52          C53   1.399       .  A
C53          H56   1.085       .  S
C57         C398   1.439       .  S
C57          C58   1.400       .  A
C57          C62   1.401       .  A
C58          C59   1.402       .  A
C58          H63   1.085       .  S
C59         C388   1.444       .  S
C59          C60   1.404       .  A
C60          C61   1.405       .  A
C60          H64   1.084       .  S
C61         C386   1.444       .  S
C61          C62   1.400       .  A
C62          H65   1.085       .  S
Zn66         O70   1.960       .  S
Zn66         O71   2.016       .  S
Zn66         O75   2.021       .  S
Zn66         O82   2.028       .  S
Zn67         O70   1.971       .  S
Zn67         O72   2.032       .  S
Zn67         O74   2.029       .  S
Zn67         O78   2.032       .  S
Zn68         O70   1.960       .  S
Zn68         O73   2.031       .  S
Zn68         O76   2.018       .  S
Zn68         O79   2.018       .  S
Zn69         O70   1.960       .  S
Zn69         O77   2.026       .  S
Zn69         O80   2.018       .  S
Zn69         O81   2.018       .  S
O71          C83   1.272       .  A
O72          C84   1.274       .  A
O73          C85   1.274       .  A
O74          C83   1.274       .  A
O75          C85   1.272       .  A
O76          C84   1.272       .  A
O77          C86   1.273       .  A
O78          C87   1.274       .  A
O79          C86   1.272       .  A
O80          C87   1.272       .  A
O81          C88   1.272       .  A
O82          C88   1.273       .  A
C83         C382   1.437       .  S
C84         C387   1.439       .  S
C85         C384   1.440       .  S
C86         C403   1.437       .  S
C87         C379   1.439       .  S
C88         C392   1.438       .  S
Zn89         O93   1.952       .  S
Zn89         O94   2.030       .  S
Zn89         O98   2.008       .  S
Zn89        O105   2.023       .  S
Zn90         O93   1.957       .  S
Zn90         O95   2.005       .  S
Zn90         O97   2.015       .  S
Zn90        O101   2.021       .  S
Zn91         O93   1.956       .  S
Zn91         O96   2.019       .  S
Zn91         O99   2.005       .  S
Zn91        O102   2.012       .  S
Zn92         O93   1.953       .  S
Zn92        O100   2.031       .  S
Zn92        O103   2.006       .  S
Zn92        O104   2.023       .  S
O94         C106   1.273       .  A
O95         C107   1.271       .  A
O96         C108   1.272       .  A
O97         C106   1.271       .  A
O98         C108   1.271       .  A
O99         C107   1.271       .  A
O100        C109   1.273       .  A
O101        C110   1.272       .  A
O102        C109   1.271       .  A
O103        C110   1.271       .  A
O104        C111   1.274       .  A
O105        C111   1.274       .  A
C106        C374   1.438       .  S
C107        C409   1.427       .  S
C108        C378   1.432       .  S
C109        C376   1.438       .  S
C110        C405   1.432       .  S
C111        C413   1.437       .  S
C112        C377   1.437       .  S
C112        C113   1.400       .  A
C112        C117   1.400       .  A
C113        C114   1.402       .  A
C113        H118   1.085       .  S
C114        C381   1.442       .  S
C114        C115   1.404       .  A
C115        C116   1.405       .  A
C115        H119   1.084       .  S
C116        C371   1.442       .  S
C116        C117   1.399       .  A
C117        H120   1.085       .  S
C121        C369   1.439       .  S
C121        C122   1.400       .  A
C121        C126   1.400       .  A
C122        C123   1.402       .  A
C122        H127   1.084       .  S
C123        C380   1.443       .  S
C123        C124   1.404       .  A
C124        C125   1.405       .  A
C124        H128   1.084       .  S
C125        C367   1.442       .  S
C125        C126   1.400       .  A
C126        H129   1.085       .  S
Zn130       O134   1.957       .  S
Zn130       O135   2.020       .  S
Zn130       O139   2.003       .  S
Zn130       O146   2.009       .  S
Zn131       O134   1.953       .  S
Zn131       O136   2.026       .  S
Zn131       O138   2.010       .  S
Zn131       O142   2.022       .  S
Zn132       O134   1.959       .  S
Zn132       O137   2.007       .  S
Zn132       O140   2.013       .  S
Zn132       O143   2.024       .  S
Zn133       O134   1.954       .  S
Zn133       O141   2.012       .  S
Zn133       O144   2.024       .  S
Zn133       O145   2.027       .  S
O135        C147   1.272       .  A
O136        C148   1.273       .  A
O137        C149   1.271       .  A
O138        C147   1.271       .  A
O139        C149   1.270       .  A
O140        C148   1.271       .  A
O141        C150   1.271       .  A
O142        C151   1.274       .  A
O143        C150   1.273       .  A
O144        C151   1.274       .  A
O145        C152   1.273       .  A
O146        C152   1.271       .  A
C147        C370   1.434       .  S
C148        C361   1.436       .  S
C149        C407   1.428       .  S
C150        C365   1.435       .  S
C151        C415   1.437       .  S
C152        C364   1.436       .  S
C153        C366   1.440       .  S
C153        C154   1.401       .  A
C153        C158   1.401       .  A
C154        C155   1.402       .  A
C154        H159   1.084       .  S
C155        C383   1.444       .  S
C155        C156   1.405       .  A
C156        C157   1.405       .  A
C156        H160   1.084       .  S
C157        C359   1.443   1_554  S
C157        C158   1.400       .  A
C158        H161   1.084       .  S
C162        N163   1.358   1_545  A
C162        N167   1.358   1_655  A
C162        C355   1.439       .  S
N163        C164   1.358       .  A
C164        N165   1.358   1_655  A
C164        C353   1.438       .  S
N165        C166   1.358   1_565  A
C166        N167   1.358       .  A
C166        C357   1.439       .  S
Zn168       O172   1.957       .  S
Zn168       O173   2.004       .  S
Zn168       O177   2.020       .  S
Zn168       O184   2.012       .  S
Zn169       O172   1.957       .  S
Zn169       O174   2.011       .  S
Zn169       O176   2.004       .  S
Zn169       O180   2.018       .  S
Zn170       O172   1.954       .  S
Zn170       O175   2.014       .  S
Zn170       O178   2.030       .  S
Zn170       O181   2.029       .  S
Zn171       O172   1.953       .  S
Zn171       O179   2.024       .  S
Zn171       O182   2.009       .  S
Zn171       O183   2.027       .  S
O173        C185   1.270       .  A
O174        C186   1.271       .  A
O175        C187   1.272       .  A
O176        C185   1.270       .  A
O177        C187   1.272       .  A
O178        C186   1.274       .  A
O179        C188   1.274       .  A
O180        C189   1.272       .  A
O181        C188   1.275       .  A
O182        C189   1.271       .  A
O183        C190   1.273       .  A
O184        C190   1.271       .  A
C185        C347   1.427       .  S
C186        C368   1.437       .  S
C187        C349   1.435       .  S
C188        C358   1.439       .  S
C189        C351   1.432       .  S
C190        C390   1.437       .  S
C191        C352   1.437       .  S
C191        C192   1.400       .  A
C191        C196   1.400       .  A
C192        C193   1.399       .  A
C192        H197   1.085       .  S
C193        C363   1.441   1_556  S
C193        C194   1.404       .  A
C194        C195   1.404       .  A
C194        H198   1.084       .  S
C195        C345   1.442       .  S
C195        C196   1.402       .  A
C196        H199   1.085       .  S
C200        C341   1.438       .  S
C200        C201   1.400       .  A
C200        C205   1.400       .  A
C201        C202   1.402       .  A
C201        H206   1.085       .  S
C202        C343   1.443       .  S
C202        C203   1.404       .  A
C203        C204   1.405       .  A
C203        H207   1.084       .  S
C204        C362   1.442       .  S
C204        C205   1.399       .  A
C205        H208   1.085       .  S
Zn209       O213   1.953       .  S
Zn209       O214   2.010       .  S
Zn209       O218   2.029       .  S
Zn209       O225   2.024       .  S
Zn210       O213   1.958       .  S
Zn210       O215   2.006       .  S
Zn210       O217   2.020       .  S
Zn210       O221   2.013       .  S
Zn211       O213   1.957       .  S
Zn211       O216   2.013       .  S
Zn211       O219   2.002       .  S
Zn211       O222   2.021       .  S
Zn212       O213   1.953       .  S
Zn212       O220   2.009       .  S
Zn212       O223   2.030       .  S
Zn212       O224   2.027       .  S
O214        C226   1.271       .  A
O215        C227   1.271       .  A
O216        C228   1.271       .  A
O217        C226   1.272       .  A
O218        C228   1.273       .  A
O219        C227   1.270       .  A
O220        C229   1.271       .  A
O221        C230   1.271       .  A
O222        C229   1.272       .  A
O223        C230   1.273       .  A
O224        C231   1.275       .  A
O225        C231   1.274       .  A
C226        C342   1.433       .  S
C227        C338   1.427       .  S
C228        C372   1.437       .  S
C229        C340   1.433       .  S
C230        C360   1.438       .  S
C231        C356   1.438       .  S
C232        C335   1.438       .  S
C232        C233   1.401       .  A
C232        C237   1.399       .  A
C233        C234   1.400       .  A
C233        H238   1.084       .  S
C234        C394   1.442   1_556  S
C234        C235   1.404       .  A
C235        C236   1.403       .  A
C235        H239   1.084       .  S
C236        C333   1.441       .  S
C236        C237   1.401       .  A
C237        H240   1.085       .  S
Zn241       O245   1.960       .  S
Zn241       O246   2.022       .  S
Zn241       O250   2.015       .  S
Zn241       O257   2.031       .  S
Zn242       O245   1.959       .  S
Zn242       O247   2.017       .  S
Zn242       O249   2.029       .  S
Zn242       O253   2.018       .  S
Zn243       O245   1.971       .  S
Zn243       O248   2.027       .  S
Zn243       O251   2.029       .  S
Zn243       O254   2.028       .  S
Zn244       O245   1.959       .  S
Zn244       O252   2.017       .  S
Zn244       O255   2.028       .  S
Zn244       O256   2.019       .  S
O246        C258   1.273       .  A
O247        C259   1.272       .  A
O248        C260   1.273       .  A
O249        C258   1.274       .  A
O250        C260   1.272       .  A
O251        C259   1.273       .  A
O252        C261   1.272       .  A
O253        C262   1.272       .  A
O254        C261   1.273       .  A
O255        C262   1.274       .  A
O256        C263   1.272       .  A
O257        C263   1.274       .  A
C258        C332   1.439       .  S
C259        C329   1.438       .  S
C260        C334   1.436       .  S
C261        C346   1.437       .  S
C262        C328   1.438       .  S
C263        C344   1.439       .  S
Zn264       O268   1.948       .  S
Zn264       O269   2.006       .  S
Zn264       O273   2.004       .  S
Zn264       O280   2.000       .  S
Zn265       O268   1.961       .  S
Zn265       O270   2.045       .  S
Zn265       O272   2.028       .  S
Zn265       O276   2.024       .  S
Zn266       O268   1.947       .  S
Zn266       O271   2.000       .  S
Zn266       O274   1.997       .  S
Zn266       O277   2.001       .  S
Zn267       O268   1.962       .  S
Zn267       O275   2.027       .  S
Zn267       O278   2.027       .  S
Zn267       O279   2.046       .  S
O269        C281   1.271       .  A
O270        C282   1.275       .  A
O271        C283   1.270       .  A
O272        C281   1.273       .  A
O273        C283   1.270       .  A
O274        C282   1.269       .  A
O275        C284   1.273       .  A
O276        C285   1.275       .  A
O277        C284   1.270       .  A
O278        C285   1.275       .  A
O279        C286   1.276       .  A
O280        C286   1.270       .  A
C281        C326   1.435       .  S
C282        C402   1.437       .  S
C283        C324   1.426       .  S
C284        C336   1.433       .  S
C285        C354   1.438       .  S
C286        C385   1.438       .  S
C287        C325   1.440       .  S
C287        C288   1.402       .  A
C287        C292   1.400       .  A
C288        C289   1.401       .  A
C288        H293   1.084       .  S
C289        C373   1.443       .  S
C289        C290   1.404       .  A
C290        C291   1.404       .  A
C290        H294   1.084       .  S
C291        C327   1.443       .  S
C291        C292   1.402       .  A
C292        H295   1.085       .  S
C296        C339   1.439       .  S
C296        C297   1.400       .  A
C296        C301   1.401       .  A
C297        C298   1.402       .  A
C297        H302   1.085       .  S
C298        C330   1.443       .  S
C298        C299   1.404       .  A
C299        C300   1.405       .  A
C299        H303   1.084       .  S
C300        C375   1.443   1_556  S
C300        C301   1.400       .  A
C301        H304   1.084       .  S
C305        C350   1.440       .  S
C305        C306   1.401       .  A
C305        C310   1.401       .  A
C306        C307   1.403       .  A
C306        H311   1.085       .  S
C307        C331   1.444       .  S
C307        C308   1.404       .  A
C308        C309   1.404       .  A
C308        H312   1.084       .  S
C309        C395   1.442       .  S
C309        C310   1.400       .  A
C310        H313   1.085       .  S
C314        C337   1.432       .  S
C314        C315   1.398       .  A
C314        C319   1.399       .  A
C315        C316   1.398       .  A
C315        H320   1.085       .  S
C316        C323   1.431       .  S
C316        C317   1.398       .  A
C317        C318   1.398       .  A
C317        H321   1.085       .  S
C318        C348   1.432       .  S
C318        C319   1.399       .  A
C319        H322   1.085       .  S
C323        C324   1.201       .  T
C325        C326   1.206       .  T
C327        C328   1.208       .  T
C329        C330   1.208       .  T
C331        C332   1.208       .  T
C333        C334   1.207       .  T
C335        C336   1.205   1_455  T
C337        C338   1.201       .  T
C339        C340   1.205   1_565  T
C341        C342   1.205   1_455  T
C343        C344   1.208       .  T
C345        C346   1.207       .  T
C347        C348   1.201       .  T
C349        C350   1.206   1_545  T
C351        C352   1.204       .  T
C353        C354   1.207       .  T
C355        C356   1.208       .  T
C357        C358   1.208       .  T
C359        C360   1.208       .  T
C361        C362   1.207       .  T
C363        C364   1.206       .  T
C365        C366   1.206   1_455  T
C367        C368   1.207       .  T
C369        C370   1.205       .  T
C371        C372   1.207       .  T
C373        C374   1.208       .  T
C375        C376   1.208       .  T
C377        C378   1.204   1_545  T
C379        C380   1.208       .  T
C381        C382   1.207       .  T
C383        C384   1.209       .  T
C385        C386   1.208       .  T
C387        C388   1.208       .  T
C389        C390   1.207       .  T
C391        C392   1.207       .  T
C393        C394   1.207       .  T
C395        C396   1.207       .  T
C397        C398   1.205   1_455  T
C399        C400   1.205   1_545  T
C401        C402   1.207       .  T
C403        C404   1.207       .  T
C405        C406   1.204       .  T
C407        C408   1.202       .  T
C409        C410   1.201       .  T
C411        C412   1.201       .  T
C413        C414   1.207       .  T
C415        C416   1.207       .  T
C417        C418   1.207       .  T
