geometry optimzed in LAMMPS
_audit_creation_date              2020-11-30 
_audit_creation_method            'lammps2cif' 
_symmetry_space_group_name_H-M    'P1' 
_symmetry_Int_Tables_number       1 
_symmetry_cell_setting            triclinic 
loop_ 
_symmetry_equiv_pos_as_xyz 
  x,y,z 
_cell_length_a                    45.36697317394749 
_cell_length_b                    47.60147267931024 
_cell_length_c                    29.173378018207586 
_cell_angle_alpha                 89.97241898956669 
_cell_angle_beta                  90.0131634608958 
_cell_angle_gamma                 115.20033465631924 
loop_ 
_atom_site_label 
_atom_site_type_symbol 
_atom_site_fract_x 
_atom_site_fract_y 
_atom_site_fract_z 
_atom_site_charge 
Zr1        Zr  0.27227115  0.43680273  0.62872279     2.17510
O2          O  0.24542683  0.46438611  0.58805710    -0.51170
O3          O  0.31095523  0.47207754  0.57220971    -0.74370
O4          O  0.26269541  0.47424992  0.67584801    -0.81160
O5          O  0.22892014  0.36159895  0.55457852    -0.82900
O6          O  0.28770020  0.47950734  0.74510630    -0.78530
O7          O  0.22849498  0.40719014  0.57635050    -0.90160
O8          O  0.35808156  0.46644589  0.57415427    -0.76120
O9          O  0.32370531  0.45507394  0.66650472    -0.85610
O10         O  0.29940572  0.40970052  0.59260148    -0.85300
O11         O  0.25934914  0.42249443  0.70841869    -0.72060
O12         O  0.23849515  0.38268873  0.64141217    -0.84200
Zr13       Zr  0.30405611  0.35910449  0.72427135     2.26420
Zr14       Zr  0.31141375  0.44101182  0.74609550     2.06270
Zr15       Zr  0.26674231  0.35579638  0.60698186     2.10050
Zr16       Zr  0.35015138  0.42664679  0.63111559     1.78760
O17         O  0.22019118  0.30543693  0.59988771    -0.93000
O18         O  0.39938509  0.47096673  0.65551779    -0.40810
O19         O  0.31790931  0.37242757  0.64512735    -0.77440
O20         O  0.33866161  0.41329428  0.71015295    -0.96130
O21         O  0.27729157  0.38690592  0.75938263    -0.89430
O22         O  0.25316874  0.34173354  0.68557055    -0.92270
C23         C  0.34010402  0.47879631  0.55799892     1.01480
C24         C  0.21804322  0.38226805  0.55217697     1.14410
C25         C  0.26956422  0.48571849  0.71636063     1.05190
O26         O  0.36059986  0.48953482  0.74863485    -0.94430
O27         O  0.34512294  0.42826025  0.80281819    -0.90170
O28         O  0.34041493  0.37967370  0.78672243    -0.83320
C29         C  0.35236083  0.40498277  0.80935421     1.11830
O30         O  0.18071650  0.38154394  0.70307231    -0.96400
Zr31       Zr  0.22635291  0.36900384  0.72053037     1.88940
O32         O  0.26870443  0.32818721  0.78776432    -0.73050
O33         O  0.29694160  0.44842621  0.82407500    -0.52310
O34         O  0.21083827  0.38872059  0.78911278    -0.96990
O35         O  0.17737208  0.32309494  0.69939386    -0.54210
O36         O  0.22055279  0.33180653  0.78074308    -0.73570
C37         C  0.23925965  0.32164446  0.80068374     0.98770
O38         O  0.34614208  0.34003704  0.73180911    -0.62390
O39         O  0.28534859  0.34989891  0.53072102    -0.57190
O40         O  0.28642907  0.30879501  0.68983015    -0.93870
O41         O  0.29142781  0.32039095  0.61473104    -0.92300
O42         O  0.36333054  0.40614705  0.56149147    -0.92660
O43         O  0.39731437  0.41538322  0.64156287    -0.91440
C44         C  0.28385486  0.30108178  0.64756563     1.17620
H45         H  0.30198141  0.41373399  0.56005768     0.33560
H46         H  0.35992120  0.41912533  0.72346643     0.44410
H47         H  0.23981074  0.31978619  0.68915029     0.37940
H48         H  0.24486568  0.43005235  0.72220241     0.34420
H49         H  0.41294568  0.47784692  0.62752941     0.26210
H50         H  0.30839073  0.47108041  0.82946413     0.32150
H51         H  0.19256329  0.37050974  0.80255934     0.38060
H52         H  0.38232832  0.42382095  0.54832848     0.32510
H53         H  0.26785342  0.33060208  0.51849831     0.31390
H54         H  0.22641494  0.29446074  0.57562081     0.33070
H55         H  0.16413727  0.31712706  0.72775723     0.32040
H56         H  0.38849879  0.39474193  0.65650129     0.36040
H57         H  0.34560752  0.32877912  0.70308762     0.28770
H58         H  0.25996314  0.48678398  0.59107048     0.33010
H59         H  0.16386577  0.37068364  0.72645353     0.35860
H60         H  0.28403965  0.36669283  0.51203530     0.28470
H61         H  0.36712645  0.35874801  0.72982507     0.41340
H62         H  0.35575502  0.50398948  0.72893263     0.31390
H63         H  0.39229521  0.48762113  0.66152898     0.39010
H64         H  0.18440073  0.30627317  0.69476637     0.30860
H65         H  0.27357829  0.44403474  0.82250379     0.30920
H66         H  0.22575378  0.46117660  0.60611314     0.31190
Zr67       Zr  0.14260931  0.19891350  0.96334662     2.17510
O68         O  0.17110620  0.16548059  0.96515798    -0.51170
O69         O  0.17643541  0.23208450  0.90024438    -0.74370
O70         O  0.12483845  0.16062724  0.90377897    -0.81160
O71         O  0.18088032  0.22059654  0.07913127    -0.82900
O72         O  0.07658181  0.15778119  0.87652530    -0.78530
O73         O  0.19360404  0.21873007  0.00452340    -0.90160
O74         O  0.17389644  0.27851045  0.90607214    -0.76120
O75         O  0.11520476  0.22306994  0.92039355    -0.85610
O76         O  0.15629759  0.24742366  0.00047451    -0.85300
O77         O  0.08540337  0.16423064  0.97070415    -0.72060
O78         O  0.12271412  0.18571306  0.04084269    -0.84200
Zr79       Zr  0.05307639  0.22706979  0.04023290     2.26420
Zr80       Zr  0.05815183  0.18897943  0.92746898     2.06270
Zr81       Zr  0.13592282  0.23461692  0.07705453     2.10050
Zr82       Zr  0.12966492  0.27169227  0.95804429     1.78640
O83         O  0.14323020  0.21684641  0.15265731    -0.93000
O84         O  0.11261536  0.28636157  0.88618554    -0.40810
O85         O  0.11009781  0.26116010  0.03567651    -0.77440
O86         O  0.07354009  0.23889947  0.96333211    -0.96130
O87         O  0.03776934  0.17777013  0.00444626    -0.89430
O88         O  0.07928023  0.20184050  0.08318673    -0.92270
C89         C  0.18523505  0.26061652  0.88794848     1.01480
C90         C  0.20117266  0.22479030  0.04683801     1.14410
C91         C  0.10051951  0.14979788  0.87644119     1.05190
O92         O  0.04838004  0.19574826  0.84708206    -0.94430
O93         O  0.01963424  0.21278591  0.91832343    -0.90170
O94         O  0.00867643  0.22373967  0.99076864    -0.83320
C95         C  0.50506153  0.22312398  0.94712218     1.11830
O96         O  0.07979720  0.10961124  0.04220675    -0.96400
Zr97       Zr  0.06512521  0.15324531  0.04728672     1.88940
O98         O  0.01013715  0.18929185  0.08731472    -0.73050
O99         O  0.00805912  0.14127233  0.92823379    -0.52310
O100        O  0.02113179  0.10692197  0.01589714    -0.96990
O101        O  0.07998342  0.13933678  0.12148146    -0.54210
O102        O  0.01758031  0.14517550  0.09468508    -0.73570
C103        C  0.00235979  0.16195731  0.10365423     0.98770
O104        O  0.04022906  0.27178725  0.04817788    -0.62390
O105        O  0.18066489  0.28500879  0.09327633    -0.57190
O106        O  0.06469842  0.25286082  0.11447548    -0.93870
O107        O  0.11510457  0.25780683  0.13466726    -0.92300
O108        O  0.17602741  0.31825943  0.98369673    -0.92660
O109        O  0.11646867  0.31594710  0.96659544    -0.91440
C110        C  0.08936923  0.26200189  0.14148642     1.17620
H111        H  0.17924759  0.26108347  0.99975218     0.33560
H112        H  0.06512852  0.25210543  0.94874407     0.44410
H113        H  0.07239517  0.19906073  0.11484615     0.37940
H114        H  0.08050963  0.14385713  0.95871548     0.34420
H115        H  0.13233525  0.30398097  0.87451908     0.26210
H116        H  0.99600408  0.14274678  0.90073240     0.32150
H117        H  0.00949746  0.09465897  0.04297147     0.38060
H118        H  0.18387092  0.33120138  0.95581498     0.32510
H119        H  0.19900186  0.28036106  0.10310467     0.31390
H120        H  0.16167628  0.23482126  0.16628185     0.33070
H121        H  0.05909847  0.12799383  0.13778925     0.32040
H122        H  0.09448655  0.30725485  0.98052745     0.36040
H123        H  0.06078291  0.28929947  0.05776171     0.28770
H124        H  0.18069008  0.16696237  0.93424942     0.33010
H125        H  0.06442105  0.09330488  0.06257273     0.35860
H126        H  0.18751727  0.29535874  0.06321436     0.28470
H127        H  0.03692494  0.27766926  0.01672490     0.41340
H128        H  0.06860351  0.21334680  0.83673378     0.31390
H129        H  0.10933818  0.26907280  0.86493337     0.39010
H130        H  0.09081624  0.15916238  0.13832213     0.30860
H131        H  0.01504216  0.12473251  0.92075943     0.30920
H132        H  0.15387064  0.14398926  0.96735749     0.31190
Zr133      Zr  0.21187616  0.07132779  0.62951274     2.17510
O134        O  0.25208724  0.05317272  0.60410238    -0.51170
O135        O  0.17174458  0.03765572  0.57485051    -0.74370
O136        O  0.20931195  0.02590780  0.66997885    -0.81160
O137        O  0.25026664  0.13934685  0.54655627    -0.82900
O138        O  0.19612733  0.02918235  0.74454419    -0.78530
O139        O  0.23980061  0.08867372  0.55799898    -0.90160
O140        O  0.12880127  0.05025931  0.57397934    -0.76120
O141        O  0.16128360  0.05697798  0.66809845    -0.85610
O142        O  0.18869887  0.10246784  0.59534398    -0.85300
O143        O  0.22712075  0.08432308  0.70824891    -0.72060
O144        O  0.25094580  0.12403005  0.64149602    -0.84200
Zr145      Zr  0.19109724  0.15473330  0.72673766     2.26420
Zr146      Zr  0.17599294  0.07014520  0.74724053     2.06270
Zr147      Zr  0.22619901  0.15479151  0.60923759     2.10050
Zr148      Zr  0.13890269  0.08931315  0.63397907     1.78760
O149        O  0.27993357  0.19397667  0.58800158    -0.93000
O150        O  0.08804347  0.04667748  0.65771427    -0.40810
O151        O  0.17579682  0.14291104  0.64755528    -0.77440
O152        O  0.15245215  0.10174495  0.71287533    -0.96130
O153        O  0.21407741  0.12309197  0.76072442    -0.89430
O154        O  0.24089134  0.16741315  0.68754981    -0.92270
C155        C  0.14439355  0.03514751  0.55859641     1.01480
C156        C  0.25177640  0.11402418  0.53533654     1.14410
C157        C  0.20698169  0.01763993  0.71210465     1.05190
O158        O  0.12458760  0.02377805  0.74928122    -0.94430
O159        O  0.14523376  0.08543399  0.80479132    -0.90170
O160        O  0.15645866  0.13623805  0.79191143    -0.83320
C161        C  0.14165596  0.11050395  0.81304686     1.11830
O162        O  0.30660124  0.11939676  0.70452348    -0.96400
Zr163      Zr  0.26409471  0.13655105  0.72082270     1.88940
O164        O  0.23024011  0.18758137  0.78557517    -0.73050
O165        O  0.18870275  0.06031952  0.82502376    -0.52310
O166        O  0.27697143  0.11487906  0.78957888    -0.96990
O167        O  0.31547878  0.17913974  0.69808400    -0.54210
O168        O  0.27326962  0.17525564  0.77972192    -0.73570
C169        C  0.25861128  0.19023806  0.79814160     0.98770
O170        O  0.15009555  0.17497553  0.73609796    -0.62390
O171        O  0.19915918  0.16633203  0.54458633    -0.57190
O172        O  0.20934191  0.20597363  0.69482660    -0.93870
O173        O  0.23038623  0.20571278  0.62407825    -0.92300
O174        O  0.12625656  0.11210201  0.56627931    -0.92660
O175        O  0.09459629  0.10432005  0.64774022    -0.91440
C176        C  0.22406631  0.21915674  0.65806814     1.17620
H177        H  0.18529022  0.09878839  0.56280683     0.33560
H178        H  0.13179062  0.09773613  0.72689597     0.44410
H179        H  0.25586260  0.18891316  0.69158461     0.37940
H180        H  0.23993546  0.07401182  0.71935937     0.34420
H181        H  0.07428091  0.04113729  0.62983197     0.26210
H182        H  0.17592677  0.03771308  0.82960242     0.32150
H183        H  0.29582025  0.13233565  0.80344922     0.38060
H184        H  0.10652820  0.09524384  0.55314164     0.32510
H185        H  0.21649968  0.18442720  0.52938162     0.31390
H186        H  0.27616577  0.20453331  0.56087909     0.33070
H187        H  0.32780988  0.18642939  0.72701590     0.32040
H188        H  0.10550565  0.12606971  0.65855580     0.36040
H189        H  0.15031609  0.18611786  0.70735700     0.28770
H190        H  0.23963834  0.03117112  0.59512072     0.33010
H191        H  0.32402053  0.12987563  0.72733107     0.35860
H192        H  0.19441806  0.14896577  0.52287215     0.28470
H193        H  0.12885622  0.15651710  0.73492573     0.41340
H194        H  0.12840981  0.00833154  0.73048251     0.31390
H195        H  0.09361583  0.02891660  0.66249003     0.39010
H196        H  0.31001540  0.19632167  0.68864143     0.30860
H197        H  0.21166477  0.06331659  0.82369162     0.30920
H198        H  0.26455783  0.05271939  0.63174512     0.31190
Zr199      Zr  0.32963697  0.08057594  0.37880329     2.17510
O200        O  0.27445871  0.05545621  0.41006913    -0.51170
O201        O  0.32964708  0.04361148  0.43660150    -0.74370
O202        O  0.29033809  0.04308469  0.32792242    -0.81160
O203        O  0.35152803  0.15191653  0.45778241    -0.82900
O204        O  0.31529256  0.03675385  0.26370004    -0.78530
O205        O  0.30978645  0.10973456  0.42755618    -0.90160
O206        O  0.38063645  0.04704969  0.44598553    -0.76120
O207        O  0.36517049  0.06080254  0.34629651    -0.85610
O208        O  0.37860371  0.10481552  0.42197816    -0.85300
O209        O  0.33459687  0.09558488  0.29918961    -0.72060
O210        O  0.34737050  0.13531275  0.37016380    -0.84200
Zr211      Zr  0.43865706  0.15635018  0.29949946     2.26420
Zr212      Zr  0.37198935  0.07709698  0.26712035     2.06270
Zr213      Zr  0.39781143  0.15969757  0.41047475     2.10050
Zr214      Zr  0.41434265  0.08563094  0.38919061     1.78760
O215        O  0.39167828  0.20716410  0.42642901    -0.93000
O216        O  0.41887009  0.03808085  0.36826115    -0.40810
O217        O  0.43451247  0.14098018  0.37852358    -0.77440
O218        O  0.42185312  0.10135197  0.30961136    -0.96130
O219        O  0.38901420  0.13172022  0.25828069    -0.89430
O220        O  0.40258085  0.17501353  0.33222166    -0.92270
C221        C  0.35018703  0.03572947  0.45648019     1.01480
C222        C  0.32149453  0.13285174  0.45517781     1.14410
C223        C  0.28996551  0.03052529  0.28899371     1.05190
O224        O  0.38321137  0.03146868  0.26377165    -0.94430
O225        O  0.41519670  0.09394288  0.20730767    -0.90170
O226        O  0.45245124  0.14240176  0.22654663    -0.83320
C227        C  0.44121688  0.11907922  0.19948780     1.11830
O228        O  0.29486485  0.13731499  0.30016079    -0.96400
Zr229      Zr  0.35265852  0.14989018  0.29187449     1.88940
O230        O  0.43862369  0.19548457  0.24444101    -0.73050
O231        O  0.35165030  0.06979147  0.18865291    -0.52310
O232        O  0.32686155  0.13668262  0.21676076    -0.96990
O233        O  0.34341965  0.19486371  0.31424094    -0.54210
O234        O  0.38656602  0.19023467  0.24189994    -0.73570
C235        C  0.41630512  0.20297467  0.22917617     0.98770
O236        O  0.49578015  0.16546744  0.29544946    -0.62390
O237        O  0.42142656  0.15969234  0.48547933    -0.57190
O238        O  0.47425602  0.20302047  0.33953757    -0.93870
O239        O  0.44910086  0.20587602  0.40572426    -0.92300
O240        O  0.44369354  0.10265679  0.46126310    -0.92660
O241        O  0.47055050  0.09240694  0.38369203    -0.91440
C242        C  0.47267711  0.21643915  0.37690107     1.17620
H243        H  0.37500275  0.10006105  0.45424832     0.33560
H244        H  0.43802213  0.09558749  0.29640614     0.44410
H245        H  0.41099863  0.19730651  0.32954267     0.37940
H246        H  0.31433011  0.08802929  0.28255601     0.34420
H247        H  0.42537212  0.03109937  0.39694514     0.26210
H248        H  0.34397392  0.04732829  0.18244059     0.32150
H249        H  0.32610330  0.15601702  0.20561338     0.38060
H250        H  0.44400318  0.08367779  0.47470225     0.32510
H251        H  0.42862057  0.18119918  0.49684505     0.31390
H252        H  0.40055830  0.21333538  0.45770554     0.33070
H253        H  0.34009924  0.20371934  0.28502091     0.32040
H254        H  0.48252245  0.11346274  0.37066663     0.36040
H255        H  0.50328810  0.16781354  0.32768612     0.28770
H256        H  0.26810793  0.03282081  0.40910525     0.33010
H257        H  0.28999176  0.14973407  0.27663346     0.35860
H258        H  0.40267040  0.14714613  0.50523944     0.28470
H259        H  0.49543114  0.14535889  0.28595678     0.41340
H260        H  0.36452656  0.01499674  0.27959914     0.31390
H261        H  0.39617509  0.02264797  0.36290545     0.39010
H262        H  0.36470089  0.21031423  0.32565864     0.30860
H263        H  0.33160152  0.07320260  0.18985246     0.30920
H264        H  0.26004201  0.05908278  0.38764011     0.31190
Zr265      Zr  0.16031554  0.44081961  0.37557686     2.17510
O266        O  0.21727630  0.45298782  0.39205753    -0.51170
O267        O  0.15935402  0.47957645  0.42924481    -0.74370
O268        O  0.19874824  0.48266580  0.32991732    -0.81160
O269        O  0.13812513  0.37477163  0.46226879    -0.82900
O270        O  0.17599700  0.48371596  0.26071280    -0.78530
O271        O  0.17473869  0.42420301  0.44603526    -0.90160
O272        O  0.10674513  0.47059223  0.44218983    -0.76120
O273        O  0.12427176  0.45946271  0.34196480    -0.85610
O274        O  0.11088959  0.41493335  0.41670914    -0.85300
O275        O  0.15696429  0.42553036  0.29663438    -0.72060
O276        O  0.14551792  0.38633005  0.36714898    -0.84200
Zr277      Zr  0.05374016  0.36326321  0.29474102     2.26420
Zr278      Zr  0.11943496  0.44322027  0.26305496     2.06270
Zr279      Zr  0.09472644  0.36056396  0.40628639     2.10050
Zr280      Zr  0.07466739  0.43312045  0.38343927     1.78760
O281        O  0.10874776  0.31715074  0.41904130    -0.93000
O282        O  0.07000258  0.48075588  0.36343504    -0.40810
O283        O  0.05699333  0.37805362  0.37376477    -0.77440
O284        O  0.06897796  0.41794467  0.30397413    -0.96130
O285        O  0.10356596  0.38872774  0.25413596    -0.89430
O286        O  0.09042090  0.34542556  0.32804980    -0.92270
C287        C  0.13739437  0.48439707  0.45116309     1.01480
C288        C  0.16403262  0.39953199  0.47024986     1.14410
C289        C  0.20006420  0.49297754  0.28908858     1.05190
O290        O  0.10832423  0.48890365  0.25929401    -0.94430
O291        O  0.07666640  0.42659998  0.20321565    -0.90170
O292        O  0.04063987  0.37737405  0.22124688    -0.83320
C293        C  0.05130920  0.40110001  0.19483826     1.11830
O294        O  0.19854956  0.38505979  0.29433789    -0.96400
Zr295      Zr  0.14037161  0.37135718  0.28840644     1.88940
O296        O  0.05408573  0.32380590  0.24141474    -0.73050
O297        O  0.14020581  0.45082946  0.18481327    -0.52310
O298        O  0.16525073  0.38474440  0.21273729    -0.96990
O299        O  0.15118047  0.32746700  0.31200470    -0.54210
O300        O  0.10637626  0.32957334  0.23944478    -0.73570
C301        C  0.07650997  0.31630902  0.22692517     0.98770
O302        O  0.99636441  0.35304507  0.28896158    -0.62390
O303        O  0.06630249  0.35408518  0.47909534    -0.57190
O304        O  0.01853369  0.31682642  0.33555804    -0.93870
O305        O  0.04481457  0.31296020  0.40011227    -0.92300
O306        O  0.04345716  0.41528455  0.45393820    -0.92660
O307        O  0.01820670  0.42488186  0.37429082    -0.91440
C308        C  0.02077133  0.30278222  0.37193979     1.17620
H309        H  0.11369933  0.41978679  0.44900270     0.33560
H310        H  0.05265278  0.42324218  0.29016188     0.44410
H311        H  0.08249164  0.32317565  0.32539727     0.37940
H312        H  0.17795965  0.43447822  0.28184117     0.34420
H313        H  0.06234122  0.48686977  0.39188252     0.26210
H314        H  0.14783047  0.47330557  0.17872585     0.32150
H315        H  0.16571079  0.36539117  0.20112086     0.38060
H316        H  0.04228737  0.43400054  0.46691934     0.32510
H317        H  0.07034554  0.33780075  0.49536106     0.31390
H318        H  0.09822763  0.30797854  0.44851772     0.33070
H319        H  0.15446800  0.31836514  0.28301257     0.32040
H320        H  0.00656010  0.40287565  0.36492807     0.36040
H321        H  0.98835877  0.35049006  0.32095643     0.28770
H322        H  0.22787607  0.47535595  0.39983966     0.33010
H323        H  0.20315578  0.37224586  0.27119884     0.35860
H324        H  0.07906284  0.37334979  0.49642748     0.28470
H325        H  0.99637435  0.37297970  0.27922518     0.41340
H326        H  0.12673606  0.50525860  0.27574100     0.31390
H327        H  0.09273739  0.49655760  0.35979427     0.39010
H328        H  0.13019448  0.31184222  0.32401894     0.30860
H329        H  0.16030732  0.44751834  0.18625512     0.30920
H330        H  0.22708514  0.45110276  0.36255619     0.31190
Zr331      Zr  0.43988177  0.29088598  0.04069249     2.17510
O332        O  0.46001603  0.25353632  0.06670209    -0.51170
O333        O  0.48364597  0.33082241  0.08337529    -0.74370
O334        O  0.47948001  0.28632753  0.98882858    -0.81160
O335        O  0.37681987  0.26046612  0.13487886    -0.82900
O336        O  0.47469053  0.30445239  0.91813692    -0.78530
O337        O  0.42563572  0.26240036  0.11249384    -0.90160
O338        O  0.47471905  0.37397903  0.09179131    -0.76120
O339        O  0.45513348  0.34011628  0.00466693    -0.85610
O340        O  0.41270463  0.31562448  0.08261410    -0.85300
O341        O  0.42020015  0.27827928  0.96344924    -0.72060
O342        O  0.38304527  0.25627726  0.03546439    -0.84200
Zr343      Zr  0.35010200  0.31778583  0.96045626     2.26420
Zr344      Zr  0.43573015  0.32807279  0.92709826     2.06270
Zr345      Zr  0.35613133  0.28246942  0.07524606     2.10050
Zr346      Zr  0.42611539  0.36381881  0.04595612     1.78760
O347        O  0.31601042  0.23213831  0.10165797    -0.93000
O348        O  0.46741922  0.41249115  0.01618741    -0.40810
O349        O  0.36851216  0.33107830  0.03858740    -0.77440
O350        O  0.40724311  0.35234750  0.96884414    -0.96130
O351        O  0.37874664  0.29391642  0.91939406    -0.89430
O352        O  0.33736991  0.26978447  0.99814770    -0.92270
C353        C  0.49098251  0.35802996  0.09957943     1.01480
C354        C  0.40184208  0.25490822  0.14072399     1.14410
C355        C  0.98611806  0.29047436  0.94568480     1.05190
O356        O  0.48647573  0.37517006  0.92647023    -0.94430
O357        O  0.41875043  0.36040324  0.87631574    -0.90170
O358        O  0.36812069  0.35428253  0.89818667    -0.83320
C359        C  0.39384068  0.36688089  0.87362978     1.11830
O360        O  0.38062159  0.20302306  0.96722982    -0.96400
Zr361      Zr  0.36453107  0.24546731  0.95753630     1.88940
O362        O  0.31387139  0.28257003  0.90034438    -0.73050
O363        O  0.44259957  0.32031988  0.84599194    -0.52310
O364        O  0.38166098  0.23347631  0.88374533    -0.96990
O365        O  0.31941910  0.19730143  0.98201679    -0.54210
O366        O  0.32012710  0.23798808  0.90646181    -0.73570
C367        C  0.30662641  0.25414249  0.88860536     0.98770
O368        O  0.32787278  0.35650722  0.96098092    -0.62390
O369        O  0.34896650  0.31026434  0.14124788    -0.57190
O370        O  0.29790152  0.29953360  0.99888263    -0.93870
O371        O  0.30181185  0.27852885  0.06760655    -0.92300
O372        O  0.41155174  0.37505600  0.12189851    -0.92660
O373        O  0.40959013  0.40625998  0.04390188    -0.91440
C374        C  0.28589559  0.28485177  0.03616860     1.17620
H375        H  0.41941726  0.31866446  0.11434986     0.33560
H376        H  0.41194168  0.37264008  0.95667227     0.44410
H377        H  0.31454145  0.25589231  0.99643366     0.37940
H378        H  0.42776601  0.26458213  0.94852946     0.34420
H379        H  0.47598729  0.42582919  0.04353618     0.26210
H380        H  0.46635662  0.33126890  0.84048457     0.32150
H381        H  0.36197354  0.21635478  0.87099893     0.38060
H382        H  0.43061922  0.39394049  0.13196031     0.32510
H383        H  0.33010815  0.29463667  0.15793907     0.31390
H384        H  0.30713091  0.23659270  0.13034137     0.33070
H385        H  0.31130256  0.18515366  0.95350562     0.32040
H386        H  0.38935155  0.39817083  0.02544536     0.36040
H387        H  0.31993613  0.35654184  0.99257886     0.28770
H388        H  0.48362113  0.26580908  0.07185321     0.33010
H389        H  0.36873278  0.18756958  0.94333648     0.35860
H390        H  0.36788561  0.31392020  0.16124755     0.28470
H391        H  0.34691607  0.37692470  0.95865050     0.41340
H392        H  0.50335357  0.36838938  0.93614732     0.31390
H393        H  0.48550626  0.40745542  0.00641177     0.39010
H394        H  0.30174849  0.20306655  0.99130864     0.30860
H395        H  0.43748830  0.29799344  0.84312604     0.30920
H396        H  0.45830501  0.23986422  0.04029152     0.31190
C397        C  0.03198534  0.39760339  0.15237889    -0.16270
C398        C  0.51865004  0.36945177  0.13208288    -0.31440
H399        H  0.02634304  0.41642811  0.14074835     0.12750
H400        H  0.52659781  0.35200552  0.14350253     0.13330
C401        C  0.42403018  0.22692620  0.19308002    -0.16270
C402        C  0.40167003  0.23762578  0.18245639    -0.31440
H403        H  0.44611463  0.23354044  0.17293969     0.12750
H404        H  0.38017036  0.23131113  0.20388369     0.13330
C405        C  0.99388998  0.27231620  0.38039656    -0.16270
C406        C  0.49924425  0.24703390  0.38549286    -0.31440
H407        H  0.96922649  0.26962236  0.37378651     0.12750
H408        H  0.52408138  0.24921809  0.38646514     0.13330
C409        C  0.25757163  0.00829332  0.27312965    -0.16270
C410        C  0.23224444  0.01614780  0.27500509    -0.31440
H411        H  0.25316807  0.98408201  0.26996560     0.12750
H412        H  0.23701584  0.54045791  0.27896829     0.13330
C413        C  0.14921258  0.50651267  0.49024702    -0.16270
C414        C  0.13025591  0.01390992  0.51885825    -0.31440
H415        H  0.17531340  0.51666657  0.49656338     0.12750
H416        H  0.10427402  0.00499488  0.51233234     0.13330
C417        C  0.26984219  0.11386964  0.49466745    -0.16270
C418        C  0.29897411  0.13722696  0.48679273    -0.31440
H419        H  0.26201762  0.09205704  0.47619426     0.12750
H420        H  0.30781529  0.15795332  0.50808101     0.13330
C421        C  0.28215188  0.23831619  0.85105253    -0.16270
C422        C  0.27577256  0.20859829  0.83923656    -0.31440
H423        H  0.27169282  0.25126324  0.83150067     0.12750
H424        H  0.28773204  0.19694933  0.85869682     0.13330
C425        C  0.47589180  0.15141480  0.13827637    -0.16270
C426        C  0.46061871  0.12271436  0.15685876    -0.31440
H427        H  0.46981821  0.16966561  0.15153554     0.12750
H428        H  0.46420941  0.10319654  0.14316833     0.13330
C429        C  0.23533175  0.24191830  0.05745111    -0.16270
C430        C  0.25070560  0.27055994  0.03976171    -0.31440
H431        H  0.24806226  0.23066771  0.07612682     0.12750
H432        H  0.23722758  0.28053453  0.01983935     0.13330
C433        C  0.50239681  0.27170620  0.92740800    -0.16270
C434        C  0.48684055  0.24030959  0.93050824    -0.31440
H435        H  0.52881002  0.28303660  0.92520761     0.12750
H436        H  0.96120856  0.23013612  0.93616771     0.13330
C437        C  0.06833482  0.29155230  0.19211765    -0.16270
C438        C  0.08993782  0.27982467  0.18278349    -0.31440
H439        H  0.04637385  0.28506610  0.17171770     0.12750
H440        H  0.11141990  0.28624076  0.20429112     0.13330
C441        C  0.10179839  0.12784125  0.84171745    -0.16270
C442        C  0.11947571  0.11136352  0.84923460    -0.31440
H443        H  0.09532264  0.13109615  0.80689567     0.12750
H444        H  0.12482108  0.10679876  0.88401959     0.13330
C445        C  0.33684390  0.01255233  0.49433932    -0.16270
C446        C  0.35443315  0.50200123  0.52030226    -0.31440
H447        H  0.31093320  0.00395520  0.50134858     0.12750
H448        H  0.38025105  0.51006097  0.51310578     0.13330
C449        C  0.25311702  0.00547276  0.73057977    -0.16270
C450        C  0.22072066  0.99533817  0.72260558    -0.31440
H451        H  0.26773369  0.02928861  0.74114110     0.12750
H452        H  0.20694581  0.97171371  0.71051066     0.13330
C453        C  0.26679063  0.26857077  0.63689820    -0.16270
C454        C  0.23815581  0.25258888  0.65767845    -0.31440
H455        H  0.27746447  0.25787082  0.61324344     0.12750
H456        H  0.22822554  0.26410301  0.68118917     0.13330
C457        C  0.37504755  0.40539252  0.84582319    -0.16270
C458        C  0.39335349  0.38938736  0.83915497    -0.31440
H459        H  0.36928702  0.40989642  0.88040212     0.12750
H460        H  0.40044165  0.38637159  0.80457806     0.13330
C461        C  0.20850891  0.27383272  0.84869422    -0.16270
C462        C  0.22649515  0.30488836  0.84462211    -0.31440
H463        H  0.20829806  0.25850863  0.82100247     0.12750
H464        H  0.22610829  0.31962479  0.87282530     0.13330
C465        C  0.18380178  0.40055357  0.50970992    -0.16270
C466        C  0.19206109  0.37739573  0.51913741    -0.31440
H467        H  0.19583523  0.42283469  0.52688563     0.12750
H468        H  0.18177148  0.35593899  0.49953394     0.13330
Zr469      Zr  0.27247787  0.93711453  0.62874217     2.17510
O470        O  0.24581346  0.96482446  0.58796937    -0.51170
O471        O  0.31122123  0.97228449  0.57227598    -0.74370
O472        O  0.26306026  0.97468455  0.67576219    -0.81160
O473        O  0.22906105  0.86198802  0.55455836    -0.82900
O474        O  0.28798963  0.97988623  0.74506937    -0.78530
O475        O  0.22862634  0.90755598  0.57643909    -0.90160
O476        O  0.35828094  0.96653482  0.57424399    -0.76120
O477        O  0.32388281  0.95526471  0.66658668    -0.85610
O478        O  0.29952042  0.90989826  0.59269016    -0.85300
O479        O  0.25948699  0.92287701  0.70843168    -0.72060
O480        O  0.23856548  0.88303957  0.64139190    -0.84200
Zr481      Zr  0.30384995  0.85919651  0.72438241     2.26420
Zr482      Zr  0.31151601  0.94123458  0.74617092     2.06270
Zr483      Zr  0.26671645  0.85602399  0.60707302     2.10050
Zr484      Zr  0.35022651  0.92672304  0.63126516     1.78760
O485        O  0.21996784  0.80577981  0.60023740    -0.93000
O486        O  0.39949069  0.97097677  0.65575731    -0.40810
O487        O  0.31784527  0.87251565  0.64527387    -0.77440
O488        O  0.33861422  0.91335907  0.71027597    -0.96130
O489        O  0.27722928  0.88715968  0.75942101    -0.89430
O490        O  0.25301293  0.84196879  0.68563092    -0.92270
C491        C  0.34035040  0.97893532  0.55807549     1.01480
C492        C  0.21817363  0.88264989  0.55222824     1.14410
C493        C  0.26993066  0.98616346  0.71626489     1.05190
O494        O  0.36079800  0.98966993  0.74882768    -0.94430
O495        O  0.34513724  0.92835759  0.80289615    -0.90170
O496        O  0.34021633  0.87969148  0.78685941    -0.83320
C497        C  0.35226430  0.90501349  0.80945537     1.11830
O498        O  0.18083848  0.88207152  0.70253812    -0.96400
Zr499      Zr  0.22633370  0.86942308  0.72049019     1.88940
O500        O  0.26834020  0.82822249  0.78773277    -0.73050
O501        O  0.29698884  0.94865506  0.82411626    -0.52310
O502        O  0.21071596  0.88933177  0.78879072    -0.96990
O503        O  0.17731648  0.82346390  0.69964448    -0.54210
O504        O  0.22049969  0.83247732  0.78103595    -0.73570
C505        C  0.23900738  0.82202149  0.80082130     0.98770
O506        O  0.34582091  0.84001527  0.73238570    -0.62390
O507        O  0.28518174  0.84994852  0.53080234    -0.57190
O508        O  0.28621257  0.80894292  0.68966484    -0.93870
O509        O  0.29103882  0.82031282  0.61444539    -0.92300
O510        O  0.36342369  0.90616767  0.56171070    -0.92660
O511        O  0.39731406  0.91535923  0.64185104    -0.91440
C512        C  0.28372431  0.80113547  0.64743615     1.17620
H513        H  0.30212443  0.91392270  0.56014605     0.33560
H514        H  0.35985659  0.91912151  0.72360740     0.44410
H515        H  0.23961690  0.82002518  0.68920315     0.37940
H516        H  0.24504651  0.93050076  0.72217889     0.34420
H517        H  0.41308486  0.97783855  0.62779708     0.26210
H518        H  0.30850217  0.97130074  0.82954166     0.32150
H519        H  0.19236601  0.87117531  0.80221550     0.38060
H520        H  0.38246152  0.92381598  0.54857801     0.32510
H521        H  0.26748559  0.83082255  0.51848695     0.31390
H522        H  0.22614314  0.79463418  0.57616952     0.33070
H523        H  0.16392010  0.81783887  0.72787211     0.32040
H524        H  0.38844321  0.89470993  0.65676825     0.36040
H525        H  0.34508577  0.82836178  0.70400363     0.28770
H526        H  0.26039879  0.98721019  0.59098833     0.33010
H527        H  0.16393582  0.87134483  0.72591376     0.35860
H528        H  0.28420702  0.86692197  0.51218526     0.28470
H529        H  0.36683114  0.85865428  0.72987461     0.41340
H530        H  0.35605788  0.00415078  0.72903908     0.31390
H531        H  0.39244103  0.98766188  0.66173716     0.39010
H532        H  0.18425302  0.80652006  0.69575829     0.30860
H533        H  0.27364870  0.94434382  0.82247919     0.30920
H534        H  0.22613854  0.96167229  0.60598028     0.31190
Zr535      Zr  0.14264010  0.69904518  0.96335636     2.17510
O536        O  0.17110411  0.66558665  0.96532896    -0.51170
O537        O  0.17665227  0.73234014  0.90050520    -0.74370
O538        O  0.12507710  0.66087504  0.90364037    -0.81160
O539        O  0.18080980  0.72074889  0.07923759    -0.82900
O540        O  0.07672833  0.65780145  0.87639977    -0.78530
O541        O  0.19357855  0.71889080  0.00464237    -0.90160
O542        O  0.17367216  0.77857751  0.90607730    -0.76120
O543        O  0.11515089  0.72309629  0.92034499    -0.85610
O544        O  0.15616211  0.74751953  0.00050038    -0.85300
O545        O  0.08546601  0.66423938  0.97058919    -0.72060
O546        O  0.12270587  0.68576662  0.04081104    -0.84200
Zr547      Zr  0.05286126  0.72686286  0.04017643     2.26420
Zr548      Zr  0.05812757  0.68889079  0.92732621     2.06270
Zr549      Zr  0.13575670  0.73463106  0.07704666     2.10050
Zr550      Zr  0.12941512  0.77167246  0.95803072     1.78640
O551        O  0.14308681  0.71694718  0.15269912    -0.93000
O552        O  0.11222272  0.78624266  0.88620388    -0.40810
O553        O  0.10984018  0.76107908  0.03565305    -0.77440
O554        O  0.07332688  0.73875942  0.96328182    -0.96130
O555        O  0.03772521  0.67761193  0.00429286    -0.89430
O556        O  0.07914623  0.70171330  0.08312853    -0.92270
C557        C  0.18527842  0.76083384  0.88814791     1.01480
C558        C  0.20111673  0.72492544  0.04696853     1.14410
C559        C  0.10076077  0.64995005  0.87631223     1.05190
O560        O  0.04848065  0.69580446  0.84694028    -0.94430
O561        O  0.01948595  0.71256830  0.91827496    -0.90170
O562        O  0.00829261  0.72316896  0.99078894    -0.83320
C563        C  0.50525071  0.72335051  0.94717588     1.11830
O564        O  0.07996092  0.60962320  0.04190699    -0.96400
Zr565      Zr  0.06514338  0.65316017  0.04714511     1.88940
O566        O  0.01001426  0.68900838  0.08725914    -0.73050
O567        O  0.00812335  0.64109633  0.92777530    -0.52310
O568        O  0.02123083  0.60680544  0.01568389    -0.96990
O569        O  0.08004681  0.63923556  0.12129353    -0.54210
O570        O  0.01752935  0.64492314  0.09450562    -0.73570
C571        C  0.00226600  0.66166066  0.10351767     0.98770
O572        O  0.03979883  0.77145663  0.04785021    -0.62390
O573        O  0.18040873  0.78508518  0.09322763    -0.57190
O574        O  0.06441686  0.75275823  0.11439541    -0.93870
O575        O  0.11484817  0.75778162  0.13459198    -0.92300
O576        O  0.17569107  0.81836329  0.98352915    -0.92660
O577        O  0.11607733  0.81584072  0.96661656    -0.91440
C578        C  0.08909697  0.76194938  0.14140661     1.17620
H579        H  0.17910378  0.76121799  0.99982610     0.33560
H580        H  0.06486046  0.75193287  0.94872469     0.44410
H581        H  0.07225084  0.69890733  0.11478396     0.37940
H582        H  0.08065800  0.64389161  0.95856801     0.34420
H583        H  0.13192727  0.80382744  0.87442480     0.26210
H584        H  0.99622048  0.64248818  0.90005556     0.32150
H585        H  0.00964006  0.59448387  0.04273841     0.38060
H586        H  0.18345841  0.83128494  0.95561488     0.32510
H587        H  0.19895689  0.78054481  0.10230969     0.31390
H588        H  0.16153135  0.73494216  0.16628563     0.33070
H589        H  0.05917738  0.62794875  0.13766317     0.32040
H590        H  0.09398576  0.80705853  0.98020290     0.36040
H591        H  0.06029408  0.78902095  0.05748585     0.28770
H592        H  0.18079347  0.66711386  0.93448523     0.33010
H593        H  0.06463176  0.59328107  0.06227063     0.35860
H594        H  0.18685546  0.79563272  0.06323618     0.28470
H595        H  0.03654338  0.77728209  0.01634239     0.41340
H596        H  0.06898043  0.71298414  0.83642252     0.31390
H597        H  0.10887255  0.76891137  0.86500036     0.39010
H598        H  0.09095147  0.65906919  0.13809473     0.30860
H599        H  0.01521800  0.62458929  0.92060031     0.30920
H600        H  0.15385202  0.64409612  0.96740185     0.31190
Zr601      Zr  0.21171962  0.57079784  0.62973343     2.17510
O602        O  0.25164411  0.55225765  0.60440468    -0.51170
O603        O  0.17154433  0.53729840  0.57502632    -0.74370
O604        O  0.20875656  0.52524176  0.67022335    -0.81160
O605        O  0.25050685  0.63877408  0.54689376    -0.82900
O606        O  0.19585687  0.52874232  0.74485165    -0.78530
O607        O  0.23985540  0.58805936  0.55835587    -0.90160
O608        O  0.12876440  0.55013661  0.57413769    -0.76120
O609        O  0.16117829  0.55671269  0.66833992    -0.85610
O610        O  0.18879235  0.60213559  0.59551775    -0.85300
O611        O  0.22702901  0.58375789  0.70843845    -0.72060
O612        O  0.25099845  0.62342844  0.64160097    -0.84200
Zr613      Zr  0.19156527  0.65457228  0.72694860     2.26420
Zr614      Zr  0.17596120  0.56986872  0.74747248     2.06270
Zr615      Zr  0.22647615  0.65440420  0.60939317     2.10050
Zr616      Zr  0.13905047  0.58923331  0.63417036     1.78760
O617        O  0.28007303  0.69346312  0.58732374    -0.93000
O618        O  0.08808905  0.54678173  0.65802555    -0.40810
O619        O  0.17615379  0.64277735  0.64777900    -0.77440
O620        O  0.15268724  0.60167338  0.71306106    -0.96130
O621        O  0.21431213  0.62272933  0.76090756    -0.89430
O622        O  0.24128026  0.66699150  0.68767694    -0.92270
C623        C  0.14425464  0.53492686  0.55874569     1.01480
C624        C  0.25195577  0.61341767  0.53572315     1.14410
C625        C  0.20653318  0.51706383  0.71238055     1.05190
O626        O  0.12447711  0.52359205  0.74968243    -0.94430
O627        O  0.14527350  0.58533922  0.80489397    -0.90170
O628        O  0.15705509  0.63629513  0.79229467    -0.83320
C629        C  0.14198115  0.61053787  0.81326482     1.11830
O630        O  0.30640613  0.61825699  0.70481831    -0.96400
Zr631      Zr  0.26423995  0.63590220  0.72088078     1.88940
O632        O  0.23105500  0.68763840  0.78531064    -0.73050
O633        O  0.18865338  0.56015134  0.82531809    -0.52310
O634        O  0.27699282  0.61438094  0.78989013    -0.96990
O635        O  0.31578624  0.67808657  0.69771474    -0.54210
O636        O  0.27383742  0.67497552  0.77924310    -0.73570
C637        C  0.25944458  0.69020942  0.79762342     0.98770
O638        O  0.15055438  0.67475008  0.73690964    -0.62390
O639        O  0.19914116  0.66580434  0.54496996    -0.57190
O640        O  0.20968690  0.70572136  0.69478810    -0.93870
O641        O  0.23122158  0.70551493  0.62439432    -0.92300
O642        O  0.12657674  0.61213354  0.56645207    -0.92660
O643        O  0.09488376  0.60446012  0.64777028    -0.91440
C644        C  0.22464019  0.71893320  0.65818801     1.17620
H645        H  0.18538028  0.59846074  0.56298001     0.33560
H646        H  0.13206174  0.59779507  0.72708905     0.44410
H647        H  0.25634318  0.68846633  0.69168933     0.37940
H648        H  0.23977161  0.57337150  0.71954198     0.34420
H649        H  0.07433881  0.54121176  0.63013126     0.26210
H650        H  0.17580034  0.53756651  0.83000215     0.32150
H651        H  0.29595877  0.63181212  0.80358012     0.38060
H652        H  0.10685963  0.59530950  0.55322838     0.32510
H653        H  0.21623195  0.68430588  0.53021858     0.31390
H654        H  0.27613306  0.70388212  0.56016907     0.33070
H655        H  0.32806837  0.68564937  0.72662185     0.32040
H656        H  0.10585940  0.62619601  0.65862570     0.36040
H657        H  0.15101797  0.68641023  0.70861858     0.28770
H658        H  0.23904638  0.53028294  0.59539813     0.33010
H659        H  0.32390460  0.62875831  0.72750956     0.35860
H660        H  0.19497725  0.64876664  0.52284687     0.28470
H661        H  0.12931903  0.65632875  0.73500459     0.41340
H662        H  0.12815558  0.50815672  0.73066133     0.31390
H663        H  0.09357375  0.52898136  0.66295516     0.39010
H664        H  0.31042340  0.69521246  0.68764480     0.30860
H665        H  0.21158435  0.56305299  0.82398423     0.30920
H666        H  0.26404013  0.55168756  0.63206772     0.31190
Zr667      Zr  0.32962598  0.58044617  0.37851016     2.17510
O668        O  0.27438048  0.55542223  0.40956566    -0.51170
O669        O  0.32950806  0.54344184  0.43631711    -0.74370
O670        O  0.29036677  0.54296075  0.32761703    -0.81160
O671        O  0.35153768  0.65165730  0.45769838    -0.82900
O672        O  0.31530232  0.53665927  0.26336019    -0.78530
O673        O  0.30978719  0.60951999  0.42738230    -0.90160
O674        O  0.38049513  0.54691220  0.44586014    -0.76120
O675        O  0.36515369  0.56064936  0.34606969    -0.85610
O676        O  0.37855838  0.60470086  0.42174275    -0.85300
O677        O  0.33461385  0.59545723  0.29890601    -0.72060
O678        O  0.34734175  0.63518694  0.36990142    -0.84200
Zr679      Zr  0.43865741  0.65621284  0.29931346     2.26420
Zr680      Zr  0.37201514  0.57695988  0.26689464     2.06270
Zr681      Zr  0.39778427  0.65959050  0.41022156     2.10050
Zr682      Zr  0.41428432  0.58547869  0.38904670     1.78760
O683        O  0.39145122  0.70695250  0.42621381    -0.93000
O684        O  0.41881088  0.53791884  0.36817687    -0.40810
O685        O  0.43447522  0.64083608  0.37834210    -0.77440
O686        O  0.42184787  0.60121221  0.30945831    -0.96130
O687        O  0.38903215  0.63158240  0.25805825    -0.89430
O688        O  0.40257246  0.67488906  0.33196786    -0.92270
C689        C  0.35002755  0.53557615  0.45628509     1.01480
C690        C  0.32151260  0.63256558  0.45511560     1.14410
C691        C  0.28998019  0.53043342  0.28866149     1.05190
O692        O  0.38322076  0.53132082  0.26359894    -0.94430
O693        O  0.41524037  0.59381489  0.20711642    -0.90170
O694        O  0.45246172  0.64228519  0.22636106    -0.83320
C695        C  0.44124585  0.61896340  0.19930216     1.11830
O696        O  0.29484776  0.63712963  0.29979361    -0.96400
Zr697      Zr  0.35265928  0.64975351  0.29160719     1.88940
O698        O  0.43863883  0.69537622  0.24427628    -0.73050
O699        O  0.35176547  0.56965873  0.18837928    -0.52310
O700        O  0.32691629  0.63660058  0.21645310    -0.96990
O701        O  0.34338887  0.69470311  0.31401144    -0.54210
O702        O  0.38657674  0.69010976  0.24168360    -0.73570
C703        C  0.41632184  0.70286750  0.22900023     0.98770
O704        O  0.49577356  0.66530285  0.29527557    -0.62390
O705        O  0.42157250  0.65971073  0.48513483    -0.57190
O706        O  0.47428956  0.70286548  0.33935561    -0.93870
O707        O  0.44900955  0.70586549  0.40534034    -0.92300
O708        O  0.44359262  0.60248726  0.46115296    -0.92660
O709        O  0.47049287  0.59224638  0.38363293    -0.91440
C710        C  0.47265024  0.71636692  0.37660406     1.17620
H711        H  0.37493115  0.59994567  0.45400991     0.33560
H712        H  0.43802516  0.59544867  0.29627905     0.44410
H713        H  0.41098903  0.69718112  0.32927530     0.37940
H714        H  0.31435521  0.58791146  0.28225433     0.34420
H715        H  0.42527796  0.53093295  0.39688518     0.26210
H716        H  0.34406874  0.54719150  0.18218203     0.32150
H717        H  0.32613607  0.65593403  0.20534605     0.38060
H718        H  0.44386980  0.58349960  0.47461057     0.32510
H719        H  0.42859596  0.68118241  0.49656296     0.31390
H720        H  0.40040925  0.71318697  0.45743922     0.33070
H721        H  0.34009692  0.70358256  0.28479651     0.32040
H722        H  0.48247252  0.61329464  0.37058604     0.36040
H723        H  0.50327224  0.66762492  0.32751538     0.28770
H724        H  0.26800170  0.53278121  0.40868692     0.33010
H725        H  0.28999744  0.64960036  0.27632622     0.35860
H726        H  0.40288630  0.64702514  0.50491275     0.28470
H727        H  0.49541628  0.64519587  0.28575601     0.41340
H728        H  0.36450256  0.51484344  0.27936028     0.31390
H729        H  0.39611870  0.52249267  0.36278055     0.39010
H730        H  0.36465720  0.71014594  0.32548054     0.30860
H731        H  0.33173228  0.57309886  0.18951214     0.30920
H732        H  0.26001760  0.55904632  0.38704093     0.31190
Zr733      Zr  0.16025780  0.94076286  0.37571848     2.17510
O734        O  0.21719272  0.95271207  0.39200028    -0.51170
O735        O  0.15942936  0.97966514  0.42919549    -0.74370
O736        O  0.19870345  0.98257680  0.33006087    -0.81160
O737        O  0.13800086  0.87495647  0.46269631    -0.82900
O738        O  0.17594872  0.98357488  0.26083970    -0.78530
O739        O  0.17460970  0.92438247  0.44641084    -0.90160
O740        O  0.10683916  0.97074102  0.44216701    -0.76120
O741        O  0.12425801  0.95942371  0.34202291    -0.85610
O742        O  0.11083440  0.91499854  0.41689955    -0.85300
O743        O  0.15686345  0.92535141  0.29683424    -0.72060
O744        O  0.14538813  0.88624864  0.36746684    -0.84200
Zr745      Zr  0.05356972  0.86315409  0.29509394     2.26420
Zr746      Zr  0.11937723  0.94305667  0.26318384     2.06270
Zr747      Zr  0.09461396  0.86061189  0.40667161     2.10050
Zr748      Zr  0.07465712  0.93319894  0.38354308     1.78760
O749        O  0.10869668  0.81723261  0.41937599    -0.93000
O750        O  0.07006282  0.98082707  0.36327052    -0.40810
O751        O  0.05690840  0.87810522  0.37406205    -0.77440
O752        O  0.06891576  0.91787648  0.30414365    -0.96130
O753        O  0.10339754  0.88852856  0.25445002    -0.89430
O754        O  0.09022661  0.84531851  0.32848663    -0.92270
C755        C  0.13749805  0.98453673  0.45109924     1.01480
C756        C  0.16388494  0.89973886  0.47068107     1.14410
C757        C  0.20001777  0.99286615  0.28922203     1.05190
O758        O  0.10833340  0.98876889  0.25910611    -0.94430
O759        O  0.07658155  0.92644493  0.20341244    -0.90170
O760        O  0.04045974  0.87727737  0.22158943    -0.83320
C761        C  0.05117337  0.90097415  0.19511628     1.11830
O762        O  0.19830634  0.88468923  0.29486545    -0.96400
Zr763      Zr  0.14016855  0.87113982  0.28877034     1.88940
O764        O  0.05387302  0.82369870  0.24169564    -0.73050
O765        O  0.14019558  0.95042528  0.18497807    -0.52310
O766        O  0.16516904  0.88451051  0.21317345    -0.96990
O767        O  0.15078639  0.82714584  0.31240445    -0.54210
O768        O  0.10614847  0.82942554  0.23967623    -0.73570
C769        C  0.07628155  0.81619946  0.22713337     0.98770
O770        O  0.99618627  0.85291857  0.28938921    -0.62390
O771        O  0.06628460  0.85415649  0.47955739    -0.57190
O772        O  0.01837570  0.81675662  0.33610089    -0.93870
O773        O  0.04463689  0.81306835  0.40078800    -0.92300
O774        O  0.04347867  0.91557969  0.45410870    -0.92660
O775        O  0.01820647  0.92499880  0.37441454    -0.91440
C776        C  0.02060142  0.80281657  0.37261311     1.17620
H777        H  0.11365107  0.91990209  0.44917702     0.33560
H778        H  0.05260618  0.92318375  0.29030289     0.44410
H779        H  0.08226342  0.82306179  0.32590044     0.37940
H780        H  0.17785865  0.93428447  0.28203661     0.34420
H781        H  0.06241181  0.98700942  0.39166771     0.26210
H782        H  0.14781749  0.97288217  0.17873264     0.32150
H783        H  0.16558563  0.86513743  0.20156371     0.38060
H784        H  0.04235477  0.93434499  0.46697695     0.32510
H785        H  0.07067730  0.83814752  0.49603320     0.31390
H786        H  0.09824936  0.80809090  0.44890393     0.33070
H787        H  0.15412907  0.81806681  0.28342439     0.32040
H788        H  0.00655049  0.90300237  0.36500799     0.36040
H789        H  0.98821929  0.85043210  0.32140006     0.28770
H790        H  0.22788771  0.97507608  0.39979340     0.33010
H791        H  0.20289954  0.87185777  0.27174205     0.35860
H792        H  0.07884041  0.87358546  0.49664356     0.28470
H793        H  0.99618325  0.87283166  0.27956474     0.41340
H794        H  0.12670177  0.00512235  0.27562575     0.31390
H795        H  0.09280700  0.99660211  0.35960027     0.39010
H796        H  0.12975149  0.81153389  0.32429891     0.30860
H797        H  0.16030185  0.94712904  0.18655425     0.30920
H798        H  0.22692423  0.95079562  0.36244841     0.31190
Zr799      Zr  0.43999507  0.79110247  0.04086378     2.17510
O800        O  0.46060475  0.75420445  0.06732935    -0.51170
O801        O  0.48362068  0.83108101  0.08363646    -0.74370
O802        O  0.47957447  0.78651196  0.98898060    -0.81160
O803        O  0.37687775  0.76053631  0.13497599    -0.82900
O804        O  0.47484135  0.80467731  0.91829847    -0.78530
O805        O  0.42562567  0.76237953  0.11244867    -0.90160
O806        O  0.47454027  0.87413758  0.09222299    -0.76120
O807        O  0.45517152  0.84031316  0.00481019    -0.85610
O808        O  0.41273077  0.81577671  0.08274832    -0.85300
O809        O  0.42036114  0.77844225  0.96361263    -0.72060
O810        O  0.38318835  0.75640260  0.03566232    -0.84200
Zr811      Zr  0.35010219  0.81776699  0.96051092     2.26420
Zr812      Zr  0.43580072  0.82821513  0.92722831     2.06270
Zr813      Zr  0.35617633  0.78254011  0.07536045     2.10050
Zr814      Zr  0.42606186  0.86394852  0.04604597     1.78760
O815        O  0.31607897  0.73224950  0.10195180    -0.93000
O816        O  0.46749378  0.91260162  0.01642678    -0.40810
O817        O  0.36847921  0.83111559  0.03864575    -0.77440
O818        O  0.40721740  0.85241668  0.96892029    -0.96130
O819        O  0.37884566  0.79396313  0.91952241    -0.89430
O820        O  0.33745192  0.76979709  0.99825884    -0.92270
C821        C  0.49085452  0.85823004  0.09997634     1.01480
C822        C  0.40186436  0.75490925  0.14072576     1.14410
C823        C  0.98594695  0.79016921  0.94570122     1.05190
O824        O  0.48648009  0.87537995  0.92666996    -0.94430
O825        O  0.41873183  0.86045542  0.87637688    -0.90170
O826        O  0.36805566  0.85422366  0.89819314    -0.83320
C827        C  0.39377728  0.86686407  0.87365271     1.11830
O828        O  0.38091335  0.70317913  0.96755660    -0.96400
Zr829      Zr  0.36472536  0.74555087  0.95773174     1.88940
O830        O  0.31385524  0.78247797  0.90046804    -0.73050
O831        O  0.44275419  0.82051360  0.84612991    -0.52310
O832        O  0.38192486  0.73353654  0.88400613    -0.96990
O833        O  0.31964153  0.69733825  0.98212291    -0.54210
O834        O  0.32038627  0.73804331  0.90657712    -0.73570
C835        C  0.30677856  0.75409118  0.88869084     0.98770
O836        O  0.32780600  0.85643980  0.96094582    -0.62390
O837        O  0.34900868  0.81040765  0.14126927    -0.57190
O838        O  0.29791324  0.79951360  0.99893816    -0.93870
O839        O  0.30181031  0.77847762  0.06763690    -0.92300
O840        O  0.41121667  0.87525156  0.12176988    -0.92660
O841        O  0.40956213  0.90639872  0.04349467    -0.91440
C842        C  0.28590158  0.78482389  0.03621243     1.17620
H843        H  0.41942531  0.81882229  0.11449146     0.33560
H844        H  0.41187351  0.87269349  0.95672122     0.44410
H845        H  0.31463163  0.75587805  0.99653537     0.37940
H846        H  0.42793964  0.76475399  0.94869585     0.34420
H847        H  0.47595038  0.92595502  0.04378592     0.26210
H848        H  0.46651311  0.83149625  0.84065959     0.32150
H849        H  0.36226532  0.71637319  0.87127646     0.38060
H850        H  0.43021966  0.89418289  0.13185677     0.32510
H851        H  0.33004717  0.79484114  0.15785869     0.31390
H852        H  0.30723457  0.73674567  0.13063614     0.33070
H853        H  0.31157217  0.68519712  0.95359548     0.32040
H854        H  0.38896390  0.89802703  0.02584196     0.36040
H855        H  0.31986016  0.85648722  0.99253458     0.28770
H856        H  0.48417468  0.76668669  0.07247564     0.33010
H857        H  0.36905984  0.68769845  0.94367786     0.35860
H858        H  0.36783992  0.81394813  0.16138969     0.28470
H859        H  0.34683110  0.87686892  0.95859757     0.41340
H860        H  0.50339613  0.86862885  0.93626719     0.31390
H861        H  0.48561978  0.90755931  0.00687095     0.39010
H862        H  0.30193821  0.70306774  0.99137407     0.30860
H863        H  0.43768171  0.79819641  0.84324975     0.30920
H864        H  0.45905265  0.74047233  0.04106371     0.31190
C865        C  0.03186006  0.89748577  0.15265530    -0.16270
C866        C  0.51845716  0.86958871  0.13258556    -0.31440
H867        H  0.02626304  0.91632992  0.14098620     0.12750
H868        H  0.52636439  0.85210640  0.14396885     0.13330
C869        C  0.42404935  0.72685135  0.19295279    -0.16270
C870        C  0.40168986  0.73756773  0.18239288    -0.31440
H871        H  0.44613406  0.73348583  0.17280721     0.12750
H872        H  0.38019626  0.73123977  0.20383688     0.13330
C873        C  0.99377125  0.77234074  0.38122470    -0.16270
C874        C  0.49927384  0.74694469  0.38518686    -0.31440
H875        H  0.96901984  0.76977124  0.37589680     0.12750
H876        H  0.52412232  0.74913612  0.38545481     0.13330
C877        C  0.25756285  0.50829127  0.27275945    -0.16270
C878        C  0.23229400  0.51622141  0.27484514    -0.31440
H879        H  0.25309732  0.48407406  0.26941264     0.12750
H880        H  0.23688977  0.04037805  0.27893221     0.13330
C881        C  0.14935845  0.00670623  0.49011606    -0.16270
C882        C  0.13010483  0.51374720  0.51894647    -0.31440
H883        H  0.17546950  0.01691326  0.49635521     0.12750
H884        H  0.10413835  0.50490446  0.51234714     0.13330
C885        C  0.27007268  0.61323844  0.49512661    -0.16270
C886        C  0.29900922  0.63679247  0.48690505    -0.31440
H887        H  0.26242131  0.59136183  0.47687186     0.12750
H888        H  0.30773421  0.65760836  0.50799112     0.13330
C889        C  0.28233377  0.73813781  0.85114294    -0.16270
C890        C  0.27712774  0.70890177  0.83819566    -0.31440
H891        H  0.27081514  0.75060507  0.83268781     0.12750
H892        H  0.29023812  0.69786698  0.85648544     0.13330
C893        C  0.47586503  0.65132050  0.13808312    -0.16270
C894        C  0.46065018  0.62262009  0.15667763    -0.31440
H895        H  0.46973125  0.66954039  0.15131565     0.12750
H896        H  0.46430933  0.60313006  0.14302300     0.13330
C897        C  0.23527616  0.74199834  0.05762122    -0.16270
C898        C  0.25071371  0.77059599  0.03981965    -0.31440
H899        H  0.24795262  0.73073794  0.07639761     0.12750
H900        H  0.23727223  0.78057730  0.01982681     0.13330
C901        C  0.50259208  0.77196491  0.92759535    -0.16270
C902        C  0.48704643  0.74056027  0.93057335    -0.31440
H903        H  0.52900981  0.78330823  0.92551389     0.12750
H904        H  0.96093713  0.72980851  0.93657114     0.13330
C905        C  0.06808538  0.79149463  0.19219995    -0.16270
C906        C  0.08968566  0.77978542  0.18272296    -0.31440
H907        H  0.04610046  0.78501897  0.17185847     0.12750
H908        H  0.11119007  0.78619903  0.20418285     0.13330
C909        C  0.10215157  0.62801284  0.84163899    -0.16270
C910        C  0.11978374  0.61151237  0.84934015    -0.31440
H911        H  0.09575677  0.63125327  0.80676799     0.12750
H912        H  0.12506587  0.60698918  0.88417867     0.13330
C913        C  0.33662835  0.51239658  0.49415512    -0.16270
C914        C  0.35467302  0.00211643  0.52036519    -0.31440
H915        H  0.31070103  0.50376239  0.50106304     0.12750
H916        H  0.38047333  0.01013237  0.51307885     0.13330
C917        C  0.25269002  0.50495193  0.73077154    -0.16270
C918        C  0.22028197  0.49477077  0.72286506    -0.31440
H919        H  0.26727635  0.52877065  0.74134927     0.12750
H920        H  0.20653702  0.47115210  0.71072834     0.13330
C921        C  0.26708638  0.76855344  0.63697051    -0.16270
C922        C  0.23850690  0.75236313  0.65774376    -0.31440
H923        H  0.27797003  0.75799158  0.61341559     0.12750
H924        H  0.22834839  0.76377100  0.68109444     0.13330
C925        C  0.37495383  0.90536706  0.84588847    -0.16270
C926        C  0.39323304  0.88933993  0.83916240    -0.31440
H927        H  0.36923674  0.90988232  0.88048481     0.12750
H928        H  0.40026857  0.88630071  0.80456550     0.13330
C929        C  0.20871611  0.77419916  0.84909561    -0.16270
C930        C  0.22612690  0.80532070  0.84475318    -0.31440
H931        H  0.20909917  0.75887754  0.82176263     0.12750
H932        H  0.22505649  0.82003372  0.87255944     0.13330
C933        C  0.18362979  0.90078129  0.51016571    -0.16270
C934        C  0.19214973  0.87775202  0.51926888    -0.31440
H935        H  0.19548351  0.92300643  0.52754148     0.12750
H936        H  0.18201545  0.85637594  0.49946234     0.13330
Zr937      Zr  0.77236016  0.43697381  0.62853783     2.17510
O938        O  0.74562004  0.46459984  0.58773811    -0.51170
O939        O  0.81111428  0.47227034  0.57213696    -0.74370
O940        O  0.76269982  0.47438484  0.67564727    -0.81160
O941        O  0.72914102  0.36180803  0.55428545    -0.82900
O942        O  0.78764442  0.47962358  0.74495176    -0.78530
O943        O  0.72858890  0.40733037  0.57615246    -0.90160
O944        O  0.85826302  0.46668270  0.57421302    -0.76120
O945        O  0.82374645  0.45523856  0.66645829    -0.85610
O946        O  0.79958033  0.40992231  0.59248573    -0.85300
O947        O  0.75934110  0.42262744  0.70820100    -0.72060
O948        O  0.73860386  0.38284805  0.64111083    -0.84200
Zr949      Zr  0.80405093  0.35924512  0.72414483     2.26420
Zr950      Zr  0.81135670  0.44112999  0.74601298     2.06270
Zr951      Zr  0.76692610  0.35600402  0.60675178     2.10050
Zr952      Zr  0.85027114  0.42685616  0.63114523     1.78760
O953        O  0.72039033  0.30565260  0.59943931    -0.93000
O954        O  0.89945431  0.47117786  0.65569154    -0.40810
O955        O  0.81803435  0.37262014  0.64504785    -0.77440
O956        O  0.83866722  0.41344711  0.71014255    -0.96130
O957        O  0.77722391  0.38701297  0.75918688    -0.89430
O958        O  0.75322550  0.34189119  0.68529436    -0.92270
C959        C  0.84028575  0.47901703  0.55800777     1.01480
C960        C  0.71818842  0.38242392  0.55194126     1.14410
C961        C  0.76953406  0.48584240  0.71617164     1.05190
O962        O  0.86053644  0.48965518  0.74866335    -0.94430
O963        O  0.84499793  0.42835298  0.80282033    -0.90170
O964        O  0.84032216  0.37977940  0.78670199    -0.83320
C965        C  0.85223577  0.40507616  0.80936670     1.11830
O966        O  0.68073769  0.38166743  0.70251220    -0.96400
Zr967      Zr  0.72634204  0.36912447  0.72018504     1.88940
O968        O  0.76861194  0.32828724  0.78753560    -0.73050
O969        O  0.79678589  0.44851411  0.82395162    -0.52310
O970        O  0.71068530  0.38878316  0.78870346    -0.96990
O971        O  0.67740337  0.32321206  0.69892545    -0.54210
O972        O  0.72046615  0.33190328  0.78038211    -0.73570
C973        C  0.73914823  0.32173388  0.80037219     0.98770
O974        O  0.84612578  0.34017191  0.73177744    -0.62390
O975        O  0.78573103  0.35025891  0.53055371    -0.57190
O976        O  0.78646513  0.30894915  0.68966031    -0.93870
O977        O  0.79145342  0.32047026  0.61451913    -0.92300
O978        O  0.86357604  0.40642458  0.56155165    -0.92660
O979        O  0.89743469  0.41561248  0.64174150    -0.91440
C980        C  0.78392292  0.30120264  0.64740913     1.17620
H981        H  0.80220214  0.41397767  0.55995014     0.33560
H982        H  0.85990874  0.41927371  0.72351433     0.44410
H983        H  0.73986296  0.31994022  0.68882537     0.37940
H984        H  0.74483571  0.43017067  0.72195462     0.34420
H985        H  0.91306207  0.47807142  0.62774772     0.26210
H986        H  0.80822736  0.47116638  0.82936277     0.32150
H987        H  0.69238146  0.37056086  0.80207251     0.38060
H988        H  0.88260369  0.42410881  0.54847064     0.32510
H989        H  0.76833941  0.33090504  0.51830250     0.31390
H990        H  0.72668038  0.29468870  0.57522781     0.33070
H991        H  0.66410245  0.31726288  0.72722992     0.32040
H992        H  0.88860433  0.39495986  0.65664641     0.36040
H993        H  0.84564135  0.32895264  0.70303531     0.28770
H994        H  0.76015316  0.48699366  0.59082161     0.33010
H995        H  0.66384822  0.37081211  0.72584730     0.35860
H996        H  0.78431862  0.36699529  0.51184459     0.28470
H997        H  0.86711309  0.35888584  0.72988263     0.41340
H998        H  0.85570536  0.50412344  0.72897223     0.31390
H999        H  0.89234709  0.48782537  0.66166078     0.39010
H1000       H  0.68443801  0.30638433  0.69441127     0.30860
H1001       H  0.77342433  0.44412235  0.82232037     0.30920
H1002       H  0.72590871  0.46137860  0.60570837     0.31190
Zr1003     Zr  0.64250791  0.19883722  0.96291442     2.17510
O1004       O  0.67112175  0.16556624  0.96473822    -0.51170
O1005       O  0.67636809  0.23213941  0.89989517    -0.74370
O1006       O  0.62480784  0.16063714  0.90339843    -0.81160
O1007       O  0.68080030  0.22060399  0.07876266    -0.82900
O1008       O  0.57648640  0.15766744  0.87623843    -0.78530
O1009       O  0.69353349  0.21874114  0.00414784    -0.90160
O1010       O  0.67359520  0.27847256  0.90549881    -0.76120
O1011       O  0.61504785  0.22299449  0.92000100    -0.85610
O1012       O  0.65593107  0.24705281  0.99999933    -0.85300
O1013       O  0.58535842  0.16417650  0.97044449    -0.72060
O1014       O  0.62270660  0.18575463  0.04049793    -0.84200
Zr1015     Zr  0.55296166  0.22694267  0.03995956     2.26420
Zr1016     Zr  0.55802464  0.18883676  0.92718478     2.06270
Zr1017     Zr  0.63587510  0.23466621  0.07664539     2.10050
Zr1018     Zr  0.62944791  0.27159395  0.95763425     1.78640
O1019       O  0.64353912  0.21732617  0.15235152    -0.93000
O1020       O  0.61209298  0.28617498  0.88588057    -0.40810
O1021       O  0.60995659  0.26114251  0.03528356    -0.77440
O1022       O  0.57331602  0.23876128  0.96300220    -0.96130
O1023       O  0.53771757  0.17764421  0.00420678    -0.89430
O1024       O  0.57927795  0.20182528  0.08292490    -0.92270
C1025       C  0.68505563  0.26063860  0.88749857     1.01480
C1026       C  0.70109395  0.22476467  0.04647950     1.14410
C1027       C  0.60047355  0.14975658  0.87611495     1.05190
O1028       O  0.54835524  0.19577036  0.84681524    -0.94430
O1029       O  0.51937012  0.21249439  0.91825493    -0.90170
O1030       O  0.50816401  0.22293695  0.99083799    -0.83320
C1031       C  0.00547634  0.22367361  0.94704338     1.11830
O1032       O  0.57975263  0.10955141  0.04180444    -0.96400
Zr1033     Zr  0.56514637  0.15321762  0.04708304     1.88940
O1034       O  0.51032517  0.18931878  0.08759757    -0.73050
O1035       O  0.50799131  0.14107045  0.92768079    -0.52310
O1036       O  0.52104659  0.10686173  0.01596782    -0.96990
O1037       O  0.58036748  0.13946526  0.12113072    -0.54210
O1038       O  0.51771191  0.14516612  0.09480320    -0.73570
C1039       C  0.50257350  0.16199809  0.10396539     0.98770
O1040       O  0.53980748  0.27150094  0.04721688    -0.62390
O1041       O  0.68059621  0.28517482  0.09246212    -0.57190
O1042       O  0.56467272  0.25298779  0.11401040    -0.93870
O1043       O  0.61504698  0.25786181  0.13422243    -0.92300
O1044       O  0.67586893  0.31828948  0.98279808    -0.92660
O1045       O  0.61629867  0.31590294  0.96645501    -0.91440
C1046       C  0.58934436  0.26211318  0.14101909     1.17620
H1047       H  0.67891607  0.26058425  0.99925452     0.33560
H1048       H  0.56480789  0.25190646  0.94845455     0.44410
H1049       H  0.57245297  0.19906924  0.11460978     0.37940
H1050       H  0.58050060  0.14380961  0.95846466     0.34420
H1051       H  0.63174642  0.30381606  0.87409642     0.26210
H1052       H  0.49619066  0.14236646  0.89979396     0.32150
H1053       H  0.50952357  0.09461332  0.04311352     0.38060
H1054       H  0.68353163  0.33119515  0.95484976     0.32510
H1055       H  0.69919074  0.28065282  0.10135395     0.31390
H1056       H  0.66202505  0.23538915  0.16572005     0.33070
H1057       H  0.55964936  0.12889308  0.13813058     0.32040
H1058       H  0.59382556  0.30704209  0.97874017     0.36040
H1059       H  0.56024476  0.28907960  0.05699531     0.28770
H1060       H  0.68069741  0.16707182  0.93381984     0.33010
H1061       H  0.56452640  0.09331956  0.06241006     0.35860
H1062       H  0.68689811  0.29568154  0.06242205     0.28470
H1063       H  0.53670761  0.27730049  0.01562533     0.41340
H1064       H  0.56886181  0.21293562  0.83628512     0.31390
H1065       H  0.60878810  0.26888627  0.86461440     0.39010
H1066       H  0.59205029  0.15942328  0.13735202     0.30860
H1067       H  0.51509051  0.12452291  0.92082599     0.30920
H1068       H  0.65391063  0.14406496  0.96693982     0.31190
Zr1069     Zr  0.71199135  0.07132700  0.62937865     2.17510
O1070       O  0.75212913  0.05307909  0.60396663    -0.51170
O1071       O  0.67186709  0.03768056  0.57469658    -0.74370
O1072       O  0.70936984  0.02589445  0.66987731    -0.81160
O1073       O  0.75057435  0.13938567  0.54653186    -0.82900
O1074       O  0.69611918  0.02915704  0.74441351    -0.78530
O1075       O  0.74002986  0.08869257  0.55794709    -0.90160
O1076       O  0.62895484  0.05032785  0.57374279    -0.76120
O1077       O  0.66136589  0.05701254  0.66785557    -0.85610
O1078       O  0.68889412  0.10251810  0.59515573    -0.85300
O1079       O  0.72717216  0.08428612  0.70813758    -0.72060
O1080       O  0.75109030  0.12401047  0.64142455    -0.84200
Zr1081     Zr  0.69122237  0.15475895  0.72656790     2.26420
Zr1082     Zr  0.67601144  0.07013692  0.74702323     2.06270
Zr1083     Zr  0.72641931  0.15482552  0.60912050     2.10050
Zr1084     Zr  0.63907036  0.08940662  0.63370054     1.78760
O1085       O  0.78011952  0.19401552  0.58775137    -0.93000
O1086       O  0.58815167  0.04683622  0.65740316    -0.40810
O1087       O  0.67599334  0.14298592  0.64735168    -0.77440
O1088       O  0.65255074  0.10179376  0.71262585    -0.96130
O1089       O  0.71412547  0.12306350  0.76058604    -0.89430
O1090       O  0.74104438  0.16740787  0.68746380    -0.92270
C1091       C  0.64453273  0.03519083  0.55840695     1.01480
C1092       C  0.75206662  0.11405420  0.53531592     1.14410
C1093       C  0.70699702  0.01761612  0.71200175     1.05190
O1094       O  0.62458151  0.02379105  0.74888971    -0.94430
O1095       O  0.64522925  0.08542492  0.80451903    -0.90170
O1096       O  0.65656771  0.13626531  0.79174024    -0.83320
C1097       C  0.64170206  0.11051412  0.81281290     1.11830
O1098       O  0.80663338  0.11924072  0.70470417    -0.96400
Zr1099     Zr  0.76417024  0.13649311  0.72077172     1.88940
O1100       O  0.73037872  0.18764853  0.78535911    -0.73050
O1101       O  0.68856381  0.06024751  0.82485669    -0.52310
O1102       O  0.77692283  0.11483468  0.78964011    -0.96990
O1103       O  0.81561082  0.17898929  0.69800060    -0.54210
O1104       O  0.77336797  0.17526042  0.77956647    -0.73570
C1105       C  0.75874052  0.19028675  0.79793672     0.98770
O1106       O  0.65017574  0.17493751  0.73601254    -0.62390
O1107       O  0.69934205  0.16632874  0.54447972    -0.57190
O1108       O  0.70945402  0.20599438  0.69463994    -0.93870
O1109       O  0.73071807  0.20578013  0.62403815    -0.92300
O1110       O  0.62654970  0.11221777  0.56592248    -0.92660
O1111       O  0.59479748  0.10448996  0.64727293    -0.91440
C1112       C  0.72428921  0.21920285  0.65795985     1.17620
H1113       H  0.68551412  0.09884762  0.56261288     0.33560
H1114       H  0.63188370  0.09780203  0.72661500     0.44410
H1115       H  0.75602899  0.18890108  0.69153001     0.37940
H1116       H  0.73996823  0.07396391  0.71927679     0.34420
H1117       H  0.57441233  0.04129911  0.62949816     0.26210
H1118       H  0.67576726  0.03763971  0.82939195     0.32150
H1119       H  0.79577724  0.13228172  0.80351761     0.38060
H1120       H  0.60683251  0.09537109  0.55273924     0.32510
H1121       H  0.71661158  0.18457292  0.52946352     0.31390
H1122       H  0.77631706  0.20454059  0.56061754     0.33070
H1123       H  0.82784384  0.18644009  0.72697044     0.32040
H1124       H  0.60571671  0.12623011  0.65812593     0.36040
H1125       H  0.65047237  0.18621289  0.70737902     0.28770
H1126       H  0.73964380  0.03108045  0.59499636     0.33010
H1127       H  0.82405051  0.12975436  0.72750094     0.35860
H1128       H  0.69482865  0.14908137  0.52261976     0.28470
H1129       H  0.62894730  0.15647589  0.73462681     0.41340
H1130       H  0.62842817  0.00834239  0.73012988     0.31390
H1131       H  0.59368440  0.02905610  0.66223408     0.39010
H1132       H  0.81015627  0.19610549  0.68817544     0.30860
H1133       H  0.71152409  0.06323252  0.82361272     0.30920
H1134       H  0.76459645  0.05260951  0.63160440     0.31190
Zr1135     Zr  0.82984682  0.08062763  0.37866435     2.17510
O1136       O  0.77464197  0.05558720  0.40986328    -0.51170
O1137       O  0.82984156  0.04372252  0.43654800    -0.74370
O1138       O  0.79057399  0.04302148  0.32791899    -0.81160
O1139       O  0.85175154  0.15204521  0.45747978    -0.82900
O1140       O  0.81551481  0.03655906  0.26377761    -0.78530
O1141       O  0.81001047  0.10979314  0.42741060    -0.90160
O1142       O  0.88083112  0.04717196  0.44597935    -0.76120
O1143       O  0.86537749  0.06080226  0.34629973    -0.85610
O1144       O  0.87881780  0.10494557  0.42179883    -0.85300
O1145       O  0.83477023  0.09548941  0.29899436    -0.72060
O1146       O  0.84753826  0.13534506  0.36982359    -0.84200
Zr1147     Zr  0.93882642  0.15627307  0.29920080     2.26420
Zr1148     Zr  0.87217021  0.07696137  0.26706647     2.06270
Zr1149     Zr  0.89799307  0.15980783  0.41008822     2.10050
Zr1150     Zr  0.91455669  0.08571195  0.38914678     1.78760
O1151       O  0.89177619  0.20726590  0.42576096    -0.93000
O1152       O  0.91916258  0.03817112  0.36839270    -0.40810
O1153       O  0.93469854  0.14104146  0.37828328    -0.77440
O1154       O  0.92204921  0.10129427  0.30950437    -0.96130
O1155       O  0.88917826  0.13156399  0.25802639    -0.89430
O1156       O  0.90274730  0.17498434  0.33177894    -0.92270
C1157       C  0.85037933  0.03585786  0.45646197     1.01480
C1158       C  0.82172655  0.13294190  0.45497277     1.14410
C1159       C  0.79019851  0.03037795  0.28906555     1.05190
O1160       O  0.88352686  0.03140595  0.26387881    -0.94430
O1161       O  0.91525556  0.09378911  0.20711334    -0.90170
O1162       O  0.95246874  0.14230229  0.22618434    -0.83320
C1163       C  0.94121315  0.11895383  0.19918132     1.11830
O1164       O  0.79502413  0.13721493  0.29968508    -0.96400
Zr1165     Zr  0.85281971  0.14978157  0.29146884     1.88940
O1166       O  0.93883485  0.19543039  0.24414702    -0.73050
O1167       O  0.85175373  0.06946504  0.18863285    -0.52310
O1168       O  0.82703545  0.13644814  0.21635977    -0.96990
O1169       O  0.84358331  0.19479546  0.31360588    -0.54210
O1170       O  0.88673738  0.19005176  0.24139276    -0.73570
C1171       C  0.91649704  0.20285535  0.22877078     0.98770
O1172       O  0.99591333  0.16528344  0.29500753    -0.62390
O1173       O  0.92169330  0.16002061  0.48510091    -0.57190
O1174       O  0.97451690  0.20292229  0.33917122    -0.93870
O1175       O  0.94925618  0.20600648  0.40513196    -0.92300
O1176       O  0.94385540  0.10282475  0.46124072    -0.92660
O1177       O  0.97078557  0.09253443  0.38377651    -0.91440
C1178       C  0.97289172  0.21645855  0.37638906     1.17620
H1179       H  0.87522013  0.10023681  0.45408189     0.33560
H1180       H  0.93821745  0.09551509  0.29633261     0.44410
H1181       H  0.91116342  0.19727278  0.32901929     0.37940
H1182       H  0.81449688  0.08788691  0.28237081     0.34420
H1183       H  0.92564658  0.03122420  0.39712204     0.26210
H1184       H  0.84410596  0.04699358  0.18251628     0.32150
H1185       H  0.82628195  0.15576473  0.20511956     0.38060
H1186       H  0.94416536  0.08386414  0.47474883     0.32510
H1187       H  0.92872945  0.18151377  0.49644257     0.31390
H1188       H  0.90070407  0.21354233  0.45699122     0.33070
H1189       H  0.84025022  0.20359223  0.28433899     0.32040
H1190       H  0.98273445  0.11354893  0.37060493     0.36040
H1191       H  0.00345759  0.16762406  0.32722609     0.28770
H1192       H  0.76827703  0.03294663  0.40902318     0.33010
H1193       H  0.79015624  0.14960049  0.27609771     0.35860
H1194       H  0.90298147  0.14738242  0.50487030     0.28470
H1195       H  0.99550898  0.14515615  0.28549849     0.41340
H1196       H  0.86486415  0.01492544  0.27973163     0.31390
H1197       H  0.89647994  0.02271763  0.36301327     0.39010
H1198       H  0.86486832  0.21027045  0.32497317     0.30860
H1199       H  0.83168696  0.07284639  0.18981396     0.30920
H1200       H  0.76024552  0.05917669  0.38735770     0.31190
Zr1201     Zr  0.66030461  0.44070190  0.37556427     2.17510
O1202       O  0.71723608  0.45277092  0.39209731    -0.51170
O1203       O  0.65939314  0.47952913  0.42912913    -0.74370
O1204       O  0.69880154  0.48250666  0.32991942    -0.81160
O1205       O  0.63795620  0.37469784  0.46233015    -0.82900
O1206       O  0.67610804  0.48360181  0.26068407    -0.78530
O1207       O  0.67460182  0.42412916  0.44614999    -0.90160
O1208       O  0.60679696  0.47061652  0.44200116    -0.76120
O1209       O  0.62434247  0.45940421  0.34185374    -0.85610
O1210       O  0.61083726  0.41486836  0.41662511    -0.85300
O1211       O  0.65699158  0.42539964  0.29663312    -0.72060
O1212       O  0.64544725  0.38619675  0.36718535    -0.84200
Zr1213     Zr  0.55376008  0.36325192  0.29460528     2.26420
Zr1214     Zr  0.61953756  0.44314678  0.26295230     2.06270
Zr1215     Zr  0.59461363  0.36048241  0.40623985     2.10050
Zr1216     Zr  0.57470337  0.43312756  0.38327002     1.78760
O1217       O  0.60860945  0.31705768  0.41903697    -0.93000
O1218       O  0.57012839  0.48078780  0.36314785    -0.40810
O1219       O  0.55696706  0.37804789  0.37362286    -0.77440
O1220       O  0.56904930  0.41794063  0.30381205    -0.96130
O1221       O  0.60362312  0.38864770  0.25407380    -0.89430
O1222       O  0.59035455  0.34534091  0.32800338    -0.92270
C1223       C  0.63744517  0.48439759  0.45099633     1.01480
C1224       C  0.66385171  0.39945954  0.47036762     1.14410
C1225       C  0.70015498  0.49282583  0.28908831     1.05190
O1226       O  0.60855582  0.48889845  0.25901656    -0.94430
O1227       O  0.57678568  0.42659659  0.20308905    -0.90170
O1228       O  0.54069568  0.37739436  0.22111556    -0.83320
C1229       C  0.55140195  0.40111945  0.19470761     1.11830
O1230       O  0.69849045  0.38481146  0.29470918    -0.96400
Zr1231     Zr  0.64035046  0.37121670  0.28844738     1.88940
O1232       O  0.55410335  0.32385023  0.24117588    -0.73050
O1233       O  0.64038525  0.45062391  0.18475680    -0.52310
O1234       O  0.66547389  0.38463072  0.21293014    -0.96990
O1235       O  0.65094721  0.32719943  0.31201998    -0.54210
O1236       O  0.60637711  0.32956804  0.23925590    -0.73570
C1237       C  0.57652339  0.31635740  0.22666005     0.98770
O1238       O  0.49639366  0.35306448  0.28881445    -0.62390
O1239       O  0.56613374  0.35399544  0.47900221    -0.57190
O1240       O  0.51850487  0.31680333  0.33532621    -0.93870
O1241       O  0.54466444  0.31289930  0.39998301    -0.92300
O1242       O  0.54345518  0.41538174  0.45375551    -0.92660
O1243       O  0.51826425  0.42493902  0.37403940    -0.91440
C1244       C  0.52066522  0.30274110  0.37172881     1.17620
H1245       H  0.61362458  0.41973141  0.44891685     0.33560
H1246       H  0.55274993  0.42326034  0.28996662     0.44410
H1247       H  0.58239423  0.32308903  0.32533373     0.37940
H1248       H  0.67799828  0.43432461  0.28186967     0.34420
H1249       H  0.56245720  0.48692964  0.39156237     0.26210
H1250       H  0.64803970  0.47309417  0.17859204     0.32150
H1251       H  0.66591833  0.36526633  0.20133392     0.38060
H1252       H  0.54230475  0.43412064  0.46668084     0.32510
H1253       H  0.57026747  0.33779330  0.49535600     0.31390
H1254       H  0.59804500  0.30786976  0.44848296     0.33070
H1255       H  0.65430181  0.31814103  0.28302752     0.32040
H1256       H  0.50660353  0.40293140  0.36469048     0.36040
H1257       H  0.48838931  0.35052648  0.32080906     0.28770
H1258       H  0.72787709  0.47514191  0.39985833     0.33010
H1259       H  0.70312416  0.37197127  0.27164451     0.35860
H1260       H  0.57881182  0.37330879  0.49627566     0.28470
H1261       H  0.49641682  0.37300066  0.27905757     0.41340
H1262       H  0.62691686  0.50521271  0.27560415     0.31390
H1263       H  0.59287576  0.49656693  0.35952959     0.39010
H1264       H  0.62990532  0.31158159  0.32388522     0.30860
H1265       H  0.66047217  0.44729270  0.18629814     0.30920
H1266       H  0.72703827  0.45085103  0.36260867     0.31190
Zr1267     Zr  0.93998420  0.29096003  0.04044578     2.17510
O1268       O  0.95979448  0.25322237  0.06573495    -0.51170
O1269       O  0.98363318  0.33079918  0.08341588    -0.74370
O1270       O  0.97990203  0.28686391  0.98875750    -0.81160
O1271       O  0.87692074  0.26025374  0.13446720    -0.82900
O1272       O  0.97489829  0.30479151  0.91800947    -0.78530
O1273       O  0.92588995  0.26248096  0.11224964    -0.90160
O1274       O  0.97467068  0.37393972  0.09182360    -0.76120
O1275       O  0.95517107  0.34022635  0.00456206    -0.85610
O1276       O  0.91271923  0.31556684  0.08246543    -0.85300
O1277       O  0.92039712  0.27846064  0.96315740    -0.72060
O1278       O  0.88317872  0.25629371  0.03509648    -0.84200
Zr1279     Zr  0.85013496  0.31780334  0.96034819     2.26420
Zr1280     Zr  0.93582534  0.32828781  0.92695645     2.06270
Zr1281     Zr  0.85617449  0.28234660  0.07500542     2.10050
Zr1282     Zr  0.92607953  0.36380214  0.04595703     1.78760
O1283       O  0.81608749  0.23205105  0.10159411    -0.93000
O1284       O  0.96735448  0.41253413  0.01631383    -0.40810
O1285       O  0.86849499  0.33099676  0.03851608    -0.77440
O1286       O  0.90724945  0.35242715  0.96881092    -0.96130
O1287       O  0.87886840  0.29407529  0.91916351    -0.89430
O1288       O  0.83747649  0.26975541  0.99785942    -0.92270
C1289       C  0.99093177  0.35799198  0.09965227     1.01480
C1290       C  0.90201966  0.25482363  0.14037655     1.14410
C1291       C  0.48576175  0.28998859  0.94576979     1.05190
O1292       O  0.98649425  0.37546214  0.92629900    -0.94430
O1293       O  0.91876009  0.36061256  0.87627990    -0.90170
O1294       O  0.86808947  0.35436392  0.89815794    -0.83320
C1295       C  0.89380963  0.36703110  0.87361937     1.11830
O1296       O  0.88094026  0.20319045  0.96655308    -0.96400
Zr1297     Zr  0.86474543  0.24558629  0.95713094     1.88940
O1298       O  0.81390050  0.28261807  0.90021237    -0.73050
O1299       O  0.94268986  0.32056074  0.84584039    -0.52310
O1300       O  0.88195131  0.23381746  0.88324538    -0.96990
O1301       O  0.81972422  0.19731113  0.98146077    -0.54210
O1302       O  0.82030642  0.23810465  0.90613764    -0.73570
C1303       C  0.80672337  0.25421914  0.88838766     0.98770
O1304       O  0.82786020  0.35649025  0.96105478    -0.62390
O1305       O  0.84905257  0.31015996  0.14101516    -0.57190
O1306       O  0.79793260  0.29948207  0.99876059    -0.93870
O1307       O  0.80179295  0.27825441  0.06730863    -0.92300
O1308       O  0.91147693  0.37494069  0.12193414    -0.92660
O1309       O  0.90947458  0.40619287  0.04403412    -0.91440
C1310       C  0.78589953  0.28468674  0.03595371     1.17620
H1311       H  0.91941249  0.31856945  0.11420998     0.33560
H1312       H  0.91191027  0.37272617  0.95669666     0.44410
H1313       H  0.81465655  0.25584041  0.99609801     0.37940
H1314       H  0.92806469  0.26483436  0.94824677     0.34420
H1315       H  0.97590419  0.42583779  0.04369969     0.26210
H1316       H  0.96644104  0.33155838  0.84031647     0.32150
H1317       H  0.86228424  0.21671626  0.87041409     0.38060
H1318       H  0.93052892  0.39382614  0.13203265     0.32510
H1319       H  0.83001853  0.29461562  0.15750449     0.31390
H1320       H  0.80728223  0.23653726  0.13032167     0.33070
H1321       H  0.81156730  0.18524863  0.95288884     0.32040
H1322       H  0.88915343  0.39804598  0.02575771     0.36040
H1323       H  0.81995154  0.35649554  0.99267794     0.28770
H1324       H  0.98340700  0.26534490  0.07101978     0.33010
H1325       H  0.86908411  0.18778384  0.94258774     0.35860
H1326       H  0.86782452  0.31356921  0.16118664     0.28470
H1327       H  0.84688799  0.37691881  0.95872593     0.41340
H1328       H  0.00339725  0.36875079  0.93610936     0.31390
H1329       H  0.98545786  0.40753231  0.00650596     0.39010
H1330       H  0.80205450  0.20302300  0.99095257     0.30860
H1331       H  0.93763667  0.29824711  0.84297360     0.30920
H1332       H  0.95805110  0.23973482  0.03907288     0.31190
C1333       C  0.53208391  0.39764666  0.15224974    -0.16270
C1334       C  0.01855034  0.36940062  0.13223618    -0.31440
H1335       H  0.52641419  0.41646629  0.14067532     0.12750
H1336       H  0.02647629  0.35194869  0.14370008     0.13330
C1337       C  0.92422623  0.22682350  0.19269358    -0.16270
C1338       C  0.90184760  0.23750087  0.18206596    -0.31440
H1339       H  0.94633420  0.23348309  0.17259330     0.12750
H1340       H  0.88032425  0.23113393  0.20345875     0.13330
C1341       C  0.49371645  0.27229676  0.38010358    -0.16270
C1342       C  0.99950159  0.24704059  0.38490266    -0.31440
H1343       H  0.46912513  0.26956526  0.37279024     0.12750
H1344       H  0.02436254  0.24926470  0.38507631     0.13330
C1345       C  0.75780598  0.00812153  0.27327215    -0.16270
C1346       C  0.73249283  0.01599172  0.27513733    -0.31440
H1347       H  0.75340073  0.98390775  0.27014564     0.12750
H1348       H  0.73714264  0.54027151  0.27876006     0.13330
C1349       C  0.64927698  0.50654551  0.49004287    -0.16270
C1350       C  0.63039991  0.01394176  0.51868439    -0.31440
H1351       H  0.67537407  0.51667044  0.49638395     0.12750
H1352       H  0.60442494  0.00505085  0.51211820     0.13330
C1353       C  0.77015053  0.11388610  0.49466741    -0.16270
C1354       C  0.79922364  0.13729614  0.48665037    -0.31440
H1355       H  0.76236816  0.09204725  0.47627560     0.12750
H1356       H  0.80803789  0.15806320  0.50784830     0.13330
C1357       C  0.78222728  0.23837219  0.85086699    -0.16270
C1358       C  0.77594464  0.20868897  0.83897517    -0.31440
H1359       H  0.77166610  0.25127375  0.83141486     0.12750
H1360       H  0.78800050  0.19709252  0.85834781     0.13330
C1361       C  0.97553017  0.15126250  0.13771612    -0.16270
C1362       C  0.96052413  0.12259996  0.15648752    -0.31440
H1363       H  0.96921463  0.16940856  0.15077985     0.12750
H1364       H  0.96439653  0.10317672  0.14303034     0.13330
C1365       C  0.73525977  0.24179473  0.05713408    -0.16270
C1366       C  0.75070691  0.27044797  0.03952511    -0.31440
H1367       H  0.74793336  0.23046282  0.07574971     0.12750
H1368       H  0.73727011  0.28049825  0.01966283     0.13330
C1369       C  0.00289916  0.27230664  0.92740072    -0.16270
C1370       C  0.98735129  0.24089323  0.93017556    -0.31440
H1371       H  0.02933417  0.28364836  0.92577273     0.12750
H1372       H  0.46075877  0.22962503  0.93701611     0.13330
C1373       C  0.56835416  0.29166861  0.19173794    -0.16270
C1374       C  0.58996069  0.27996432  0.18230478    -0.31440
H1375       H  0.54637479  0.28518797  0.17138135     0.12750
H1376       H  0.61146023  0.28637258  0.20377352     0.13330
C1377       C  0.60179841  0.12781647  0.84140765    -0.16270
C1378       C  0.61949933  0.11136753  0.84896741    -0.31440
H1379       H  0.59533663  0.13106155  0.80657493     0.12750
H1380       H  0.62484027  0.10682354  0.88376572     0.13330
C1381       C  0.83702442  0.01269910  0.49433499    -0.16270
C1382       C  0.85462933  0.50222846  0.52033533    -0.31440
H1383       H  0.81110605  0.00408206  0.50130104     0.12750
H1384       H  0.88044907  0.51029226  0.51314847     0.13330
C1385       C  0.75312606  0.00546844  0.73057015    -0.16270
C1386       C  0.72073430  0.99532000  0.72254338    -0.31440
H1387       H  0.76772121  0.02928205  0.74116142     0.12750
H1388       H  0.70698257  0.97169968  0.71041722     0.13330
C1389       C  0.76696219  0.26867054  0.63680867    -0.16270
C1390       C  0.73833814  0.25263719  0.65758569    -0.31440
H1391       H  0.77768272  0.25800497  0.61316973     0.12750
H1392       H  0.72835152  0.26412447  0.68105815     0.13330
C1393       C  0.87489449  0.40547557  0.84587198    -0.16270
C1394       C  0.89326890  0.38953960  0.83918414    -0.31440
H1395       H  0.86907776  0.40991381  0.88045474     0.12750
H1396       H  0.90040430  0.38658762  0.80460633     0.13330
C1397       C  0.70836842  0.27388907  0.84829720    -0.16270
C1398       C  0.72632091  0.30495155  0.84426922    -0.31440
H1399       H  0.70823157  0.25858292  0.82062212     0.12750
H1400       H  0.72585793  0.31966506  0.87245935     0.13330
C1401       C  0.68356616  0.40047209  0.50988394    -0.16270
C1402       C  0.69215914  0.37748288  0.51895172    -0.31440
H1403       H  0.69535268  0.42267855  0.52732626     0.12750
H1404       H  0.68209329  0.35612757  0.49909356     0.13330
Zr1405     Zr  0.77260694  0.93720754  0.62868518     2.17510
O1406       O  0.74598920  0.96494308  0.58786936    -0.51170
O1407       O  0.81136481  0.97240253  0.57224101    -0.74370
O1408       O  0.76312811  0.97472834  0.67573528    -0.81160
O1409       O  0.72923441  0.86210494  0.55448984    -0.82900
O1410       O  0.78803755  0.97992284  0.74505708    -0.78530
O1411       O  0.72869951  0.90761555  0.57646055    -0.90160
O1412       O  0.85847116  0.96673953  0.57429956    -0.76120
O1413       O  0.82400362  0.95538138  0.66656256    -0.85610
O1414       O  0.79970503  0.91004732  0.59262111    -0.85300
O1415       O  0.75960448  0.92292776  0.70836559    -0.72060
O1416       O  0.73874083  0.88312012  0.64131034    -0.84200
Zr1417     Zr  0.80406049  0.85932094  0.72426906     2.26420
Zr1418     Zr  0.81162523  0.94131814  0.74613370     2.06270
Zr1419     Zr  0.76693431  0.85616122  0.60695010     2.10050
Zr1420     Zr  0.85040279  0.92689024  0.63123397     1.78760
O1421       O  0.72022450  0.80589924  0.60000885    -0.93000
O1422       O  0.89965178  0.97113176  0.65580427    -0.40810
O1423       O  0.81805799  0.87267160  0.64517146    -0.77440
O1424       O  0.83878269  0.91350032  0.71022830    -0.96130
O1425       O  0.77738821  0.88722561  0.75933918    -0.89430
O1426       O  0.75322849  0.84206801  0.68549787    -0.92270
C1427       C  0.84051921  0.97910325  0.55809811     1.01480
C1428       C  0.71827268  0.88271583  0.55223337     1.14410
C1429       C  0.76997307  0.98619037  0.71625012     1.05190
O1430       O  0.86086975  0.98978530  0.74883957    -0.94430
O1431       O  0.84525572  0.92845547  0.80285986    -0.90170
O1432       O  0.84041080  0.87982270  0.78675673    -0.83320
C1433       C  0.85241858  0.90513050  0.80938979     1.11830
O1434       O  0.68097922  0.88210654  0.70261178    -0.96400
Zr1435     Zr  0.72649681  0.86945608  0.72039679     1.88940
O1436       O  0.76857038  0.82834621  0.78762777    -0.73050
O1437       O  0.79706659  0.94869193  0.82408303    -0.52310
O1438       O  0.71091562  0.88927491  0.78881938    -0.96990
O1439       O  0.67748325  0.82355088  0.69936647    -0.54210
O1440       O  0.72061881  0.83237084  0.78077500    -0.73570
C1441       C  0.73918663  0.82200894  0.80062268     0.98770
O1442       O  0.84605302  0.84016111  0.73219011    -0.62390
O1443       O  0.78544543  0.85017305  0.53066854    -0.57190
O1444       O  0.78644269  0.80906821  0.68955073    -0.93870
O1445       O  0.79128124  0.82046867  0.61434219    -0.92300
O1446       O  0.86363759  0.90642259  0.56162170    -0.92660
O1447       O  0.89749141  0.91552480  0.64179371    -0.91440
C1448       C  0.78395163  0.80127591  0.64731509     1.17620
H1449       H  0.80231847  0.91408685  0.56008126     0.33560
H1450       H  0.86002583  0.91927938  0.72356653     0.44410
H1451       H  0.73984244  0.82012099  0.68904892     0.37940
H1452       H  0.74514334  0.93052584  0.72211517     0.34420
H1453       H  0.91325399  0.97802220  0.62785504     0.26210
H1454       H  0.80855853  0.97133703  0.82952666     0.32150
H1455       H  0.69257709  0.87109951  0.80222481     0.38060
H1456       H  0.88269526  0.92408173  0.54855160     0.32510
H1457       H  0.76779348  0.83101807  0.51834929     0.31390
H1458       H  0.72641998  0.79479245  0.57590515     0.33070
H1459       H  0.66413395  0.81778726  0.72763434     0.32040
H1460       H  0.88861865  0.89486355  0.65667457     0.36040
H1461       H  0.84536776  0.82859490  0.70373399     0.28770
H1462       H  0.76057309  0.98732588  0.59093476     0.33010
H1463       H  0.66408985  0.87134069  0.72598696     0.35860
H1464       H  0.78440190  0.86711987  0.51206201     0.28470
H1465       H  0.86705898  0.85881594  0.72980222     0.41340
H1466       H  0.85611267  0.00426182  0.72906465     0.31390
H1467       H  0.89259327  0.98780662  0.66182116     0.39010
H1468       H  0.68444399  0.80664578  0.69518669     0.30860
H1469       H  0.77372101  0.94435937  0.82244054     0.30920
H1470       H  0.72629594  0.96178124  0.60584203     0.31190
Zr1471     Zr  0.64266269  0.69900510  0.96307376     2.17510
O1472       O  0.67107594  0.66549330  0.96495193    -0.51170
O1473       O  0.67661371  0.73230652  0.90015602    -0.74370
O1474       O  0.62500804  0.66086316  0.90333693    -0.81160
O1475       O  0.68084308  0.72055028  0.07885874    -0.82900
O1476       O  0.57670655  0.65792186  0.87611374    -0.78530
O1477       O  0.69364440  0.71881876  0.00425837    -0.90160
O1478       O  0.67375779  0.77859819  0.90581750    -0.76120
O1479       O  0.61521025  0.72312773  0.92014057    -0.85610
O1480       O  0.65627416  0.74748778  0.00023825    -0.85300
O1481       O  0.58546504  0.66426844  0.97038103    -0.72060
O1482       O  0.62276489  0.68575660  0.04055810    -0.84200
Zr1483     Zr  0.55304871  0.72698350  0.04008027     2.26420
Zr1484     Zr  0.55817166  0.68899304  0.92717646     2.06270
Zr1485     Zr  0.63592971  0.73464453  0.07681180     2.10050
Zr1486     Zr  0.62955612  0.77170749  0.95785895     1.78640
O1487       O  0.64364485  0.71731348  0.15253453    -0.93000
O1488       O  0.61223491  0.78630304  0.88616468    -0.40810
O1489       O  0.61004144  0.76115134  0.03550654    -0.77440
O1490       O  0.57344873  0.73886365  0.96315440    -0.96130
O1491       O  0.53781693  0.67773169  0.00417052    -0.89430
O1492       O  0.57930744  0.70178240  0.08298277    -0.92270
C1493       C  0.68528454  0.76081411  0.88782042     1.01480
C1494       C  0.70117496  0.72482260  0.04659206     1.14410
C1495       C  0.60069951  0.65001535  0.87599004     1.05190
O1496       O  0.54848972  0.69600231  0.84683650    -0.94430
O1497       O  0.51954795  0.71270802  0.91830269    -0.90170
O1498       O  0.50834451  0.72315019  0.99089282    -0.83320
C1499       C  0.00519848  0.72327860  0.94706125     1.11830
O1500       O  0.57980850  0.60957031  0.04156519    -0.96400
Zr1501     Zr  0.56519059  0.65322248  0.04698392     1.88940
O1502       O  0.51034737  0.68928867  0.08753638    -0.73050
O1503       O  0.50815223  0.64121571  0.92758183    -0.52310
O1504       O  0.52109529  0.60689448  0.01578902    -0.96990
O1505       O  0.58040493  0.63941217  0.12099360    -0.54210
O1506       O  0.51772788  0.64512712  0.09465557    -0.73570
C1507       C  0.50258129  0.66194846  0.10383410     0.98770
O1508       O  0.53996858  0.77157699  0.04756004    -0.62390
O1509       O  0.68060792  0.78514562  0.09261723    -0.57190
O1510       O  0.56470364  0.75294752  0.11420766    -0.93870
O1511       O  0.61504524  0.75775325  0.13447133    -0.92300
O1512       O  0.67595606  0.81838397  0.98309288    -0.92660
O1513       O  0.61636786  0.81594305  0.96674136    -0.91440
C1514       C  0.58935229  0.76202774  0.14125768     1.17620
H1515       H  0.67922066  0.76116386  0.99952219     0.33560
H1516       H  0.56497330  0.75204285  0.94863398     0.44410
H1517       H  0.57245437  0.69897745  0.11465715     0.37940
H1518       H  0.58061441  0.64391910  0.95832684     0.34420
H1519       H  0.63190713  0.80392432  0.87438713     0.26210
H1520       H  0.49631524  0.64257336  0.89977016     0.32150
H1521       H  0.50958597  0.59460663  0.04291273     0.38060
H1522       H  0.68357255  0.83133256  0.95517866     0.32510
H1523       H  0.69925918  0.78065023  0.10127880     0.31390
H1524       H  0.66216712  0.73536605  0.16585597     0.33070
H1525       H  0.55975075  0.62925587  0.13826378     0.32040
H1526       H  0.59400992  0.80708446  0.97943464     0.36040
H1527       H  0.56044231  0.78914391  0.05725577     0.28770
H1528       H  0.68076161  0.66703568  0.93410231     0.33010
H1529       H  0.56460851  0.59332963  0.06218355     0.35860
H1530       H  0.68679337  0.79572225  0.06261485     0.28470
H1531       H  0.53677972  0.77739184  0.01601662     0.41340
H1532       H  0.56900693  0.71315431  0.83630839     0.31390
H1533       H  0.60890025  0.76900379  0.86490538     0.39010
H1534       H  0.59252428  0.65939768  0.13695173     0.30860
H1535       H  0.51525233  0.62469109  0.92056132     0.30920
H1536       H  0.65380888  0.64400824  0.96699316     0.31190
Zr1537     Zr  0.71177881  0.57093628  0.62949354     2.17510
O1538       O  0.75168379  0.55235891  0.60421102    -0.51170
O1539       O  0.67162480  0.53743611  0.57475416    -0.74370
O1540       O  0.70878342  0.52537870  0.67000815    -0.81160
O1541       O  0.75074015  0.63894481  0.54675157    -0.82900
O1542       O  0.69578953  0.52885102  0.74459906    -0.78530
O1543       O  0.74001205  0.58821165  0.55819074    -0.90160
O1544       O  0.62884989  0.55028027  0.57378984    -0.76120
O1545       O  0.66119986  0.55686117  0.66798615    -0.85610
O1546       O  0.68890476  0.60229557  0.59520661    -0.85300
O1547       O  0.72701993  0.58387731  0.70822350    -0.72060
O1548       O  0.75106196  0.62355755  0.64143712    -0.84200
Zr1549     Zr  0.69155725  0.65471352  0.72662098     2.26420
Zr1550     Zr  0.67591425  0.56999221  0.74713912     2.06270
Zr1551     Zr  0.72659388  0.65455503  0.60914440     2.10050
Zr1552     Zr  0.63912744  0.58941030  0.63376148     1.78760
O1553       O  0.78016598  0.69363441  0.58701768    -0.93000
O1554       O  0.58812511  0.54700432  0.65759532    -0.40810
O1555       O  0.67623399  0.64294711  0.64741830    -0.77440
O1556       O  0.65268752  0.60182164  0.71267530    -0.96130
O1557       O  0.71425217  0.62284782  0.76064753    -0.89430
O1558       O  0.74131436  0.66712291  0.68746132    -0.92270
C1559       C  0.64433914  0.53505749  0.55844529     1.01480
C1560       C  0.75217197  0.61357931  0.53558700     1.14410
C1561       C  0.70650466  0.51718313  0.71216053     1.05190
O1562       O  0.62440960  0.52373539  0.74925247    -0.94430
O1563       O  0.64519469  0.58545099  0.80449077    -0.90170
O1564       O  0.65700427  0.63641817  0.79193548    -0.83320
C1565       C  0.64190404  0.61064698  0.81286602     1.11830
O1566       O  0.80639600  0.61833936  0.70493020    -0.96400
Zr1567     Zr  0.76422168  0.63601623  0.72074254     1.88940
O1568       O  0.73100063  0.68779528  0.78500755    -0.73050
O1569       O  0.68849603  0.56024812  0.82502975    -0.52310
O1570       O  0.77684890  0.61449732  0.78985286    -0.96990
O1571       O  0.81580623  0.67815690  0.69760400    -0.54210
O1572       O  0.77377352  0.67510887  0.77906622    -0.73570
C1573       C  0.75937225  0.69035481  0.79738750     0.98770
O1574       O  0.65050805  0.67484495  0.73655322    -0.62390
O1575       O  0.69925594  0.66591422  0.54468704    -0.57190
O1576       O  0.70970777  0.70587018  0.69446428    -0.93870
O1577       O  0.73139857  0.70568213  0.62418089    -0.92300
O1578       O  0.62673853  0.61229982  0.56596292    -0.92660
O1579       O  0.59497725  0.60468605  0.64719739    -0.91440
C1580       C  0.72475769  0.71909505  0.65792785     1.17620
H1581       H  0.68552377  0.59862408  0.56266394     0.33560
H1582       H  0.63205048  0.59794528  0.72666440     0.44410
H1583       H  0.75638281  0.68859323  0.69150301     0.37940
H1584       H  0.73974576  0.57348353  0.71936271     0.34420
H1585       H  0.57439435  0.54142940  0.62968207     0.26210
H1586       H  0.67562714  0.53766366  0.82969452     0.32150
H1587       H  0.79579960  0.63192436  0.80358072     0.38060
H1588       H  0.60702567  0.59547995  0.55272234     0.32510
H1589       H  0.71629263  0.68452490  0.53008791     0.31390
H1590       H  0.77620731  0.70402389  0.55984246     0.33070
H1591       H  0.82797826  0.68587539  0.72655350     0.32040
H1592       H  0.60595601  0.62642067  0.65805702     0.36040
H1593       H  0.65102668  0.68656984  0.70831032     0.28770
H1594       H  0.73907728  0.53038361  0.59521379     0.33010
H1595       H  0.82387767  0.62888115  0.72762831     0.35860
H1596       H  0.69527835  0.64896974  0.52246371     0.28470
H1597       H  0.62928318  0.65642016  0.73452238     0.41340
H1598       H  0.62809603  0.50829799  0.73024709     0.31390
H1599       H  0.59358468  0.52919356  0.66257775     0.39010
H1600       H  0.81043605  0.69520588  0.68717075     0.30860
H1601       H  0.71142520  0.56313946  0.82376159     0.30920
H1602       H  0.76407233  0.55178900  0.63188248     0.31190
Zr1603     Zr  0.82973412  0.58049796  0.37837376     2.17510
O1604       O  0.77449990  0.55553823  0.40948674    -0.51170
O1605       O  0.82967299  0.54360536  0.43631110    -0.74370
O1606       O  0.79045815  0.54286370  0.32767205    -0.81160
O1607       O  0.85168217  0.65186887  0.45725187    -0.82900
O1608       O  0.81537692  0.53636550  0.26353427    -0.78530
O1609       O  0.80992682  0.60962852  0.42717614    -0.90160
O1610       O  0.88067059  0.54710940  0.44588080    -0.76120
O1611       O  0.86527614  0.56063886  0.34615843    -0.85610
O1612       O  0.87868900  0.60491290  0.42151238    -0.85300
O1613       O  0.83465493  0.59526756  0.29867409    -0.72060
O1614       O  0.84737779  0.63520857  0.36941995    -0.84200
Zr1615     Zr  0.93867006  0.65606402  0.29885306     2.26420
Zr1616     Zr  0.87206161  0.57670266  0.26687709     2.06270
Zr1617     Zr  0.89785530  0.65976867  0.40963712     2.10050
Zr1618     Zr  0.91443431  0.58563519  0.38902739     1.78760
O1619       O  0.89138324  0.70707594  0.42550640    -0.93000
O1620       O  0.91917456  0.53813129  0.36845096    -0.40810
O1621       O  0.93456369  0.64095402  0.37798608    -0.77440
O1622       O  0.92192368  0.60110609  0.30933331    -0.96130
O1623       O  0.88903080  0.63129121  0.25767728    -0.89430
O1624       O  0.90257938  0.67481486  0.33128645    -0.92270
C1625       C  0.85020521  0.53577193  0.45630552     1.01480
C1626       C  0.82166709  0.63273141  0.45480599     1.14410
C1627       C  0.79006517  0.53021798  0.28881581     1.05190
O1628       O  0.88335728  0.53110586  0.26396655    -0.94430
O1629       O  0.91517055  0.59343899  0.20696394    -0.90170
O1630       O  0.95229817  0.64201222  0.22590021    -0.83320
C1631       C  0.94109642  0.61861970  0.19897918     1.11830
O1632       O  0.79479144  0.63678502  0.29887777    -0.96400
Zr1633     Zr  0.85265164  0.64953221  0.29101673     1.88940
O1634       O  0.93867911  0.69525336  0.24386037    -0.73050
O1635       O  0.85175103  0.56908833  0.18838451    -0.52310
O1636       O  0.82708728  0.63628834  0.21575849    -0.96990
O1637       O  0.84319366  0.69440382  0.31326633    -0.54210
O1638       O  0.88659183  0.68991020  0.24114095    -0.73570
C1639       C  0.91635567  0.70272178  0.22855038     0.98770
O1640       O  0.99574813  0.66504440  0.29457415    -0.62390
O1641       O  0.92190312  0.66018385  0.48444726    -0.57190
O1642       O  0.97444339  0.70270883  0.33872181    -0.93870
O1643       O  0.94896881  0.70615128  0.40426557    -0.92300
O1644       O  0.94362914  0.60280917  0.46118427    -0.92660
O1645       O  0.97070279  0.59256007  0.38380367    -0.91440
C1646       C  0.97271326  0.71644731  0.37567197     1.17620
H1647       H  0.87507931  0.60023713  0.45380347     0.33560
H1648       H  0.93810282  0.59532096  0.29621414     0.44410
H1649       H  0.91097659  0.69709803  0.32845830     0.37940
H1650       H  0.81438993  0.58766531  0.28203219     0.34420
H1651       H  0.92562241  0.53121462  0.39723611     0.26210
H1652       H  0.84406866  0.54660059  0.18237321     0.32150
H1653       H  0.82627265  0.65559022  0.20457360     0.38060
H1654       H  0.94397723  0.58387232  0.47472156     0.32510
H1655       H  0.92894180  0.68169331  0.49571870     0.31390
H1656       H  0.90048269  0.71344104  0.45663424     0.33070
H1657       H  0.84001948  0.70331280  0.28400874     0.32040
H1658       H  0.98261822  0.61354915  0.37053387     0.36040
H1659       H  0.00333354  0.66743305  0.32677525     0.28770
H1660       H  0.76811976  0.53289432  0.40873619     0.33010
H1661       H  0.78996936  0.64924467  0.27536189     0.35860
H1662       H  0.90328696  0.64755409  0.50437409     0.28470
H1663       H  0.99532825  0.64490003  0.28512649     0.41340
H1664       H  0.86464547  0.51465092  0.27977268     0.31390
H1665       H  0.89651365  0.52264891  0.36300788     0.39010
H1666       H  0.86440023  0.70984872  0.32491852     0.30860
H1667       H  0.83170867  0.57251591  0.18943583     0.30920
H1668       H  0.76012688  0.55910783  0.38691876     0.31190
Zr1669     Zr  0.66037862  0.94063569  0.37581742     2.17510
O1670       O  0.71727388  0.95247724  0.39220573    -0.51170
O1671       O  0.65958101  0.97960288  0.42917402    -0.74370
O1672       O  0.69890834  0.98240889  0.33015596    -0.81160
O1673       O  0.63784663  0.87484763  0.46290199    -0.82900
O1674       O  0.67621340  0.98349180  0.26091326    -0.78530
O1675       O  0.67454411  0.92425166  0.44665451    -0.90160
O1676       O  0.60699463  0.97072791  0.44205486    -0.76120
O1677       O  0.62447263  0.95936184  0.34199957    -0.85610
O1678       O  0.61088667  0.91491046  0.41687517    -0.85300
O1679       O  0.65705052  0.92524668  0.29693559    -0.72060
O1680       O  0.64543478  0.88610373  0.36762197    -0.84200
Zr1681     Zr  0.55377020  0.86317638  0.29494375     2.26420
Zr1682     Zr  0.61964810  0.94301209  0.26315331     2.06270
Zr1683     Zr  0.59458133  0.86050288  0.40666652     2.10050
Zr1684     Zr  0.57481873  0.93319923  0.38341382     1.78760
O1685       O  0.60863715  0.81713600  0.41966852    -0.93000
O1686       O  0.57037788  0.98088080  0.36301425    -0.40810
O1687       O  0.55699409  0.87809294  0.37391730    -0.77440
O1688       O  0.56914929  0.91789348  0.30402071    -0.96130
O1689       O  0.60365516  0.88848343  0.25441922    -0.89430
O1690       O  0.59031939  0.84525859  0.32847045    -0.92270
C1691       C  0.63764943  0.98450579  0.45102043     1.01480
C1692       C  0.66373360  0.89961665  0.47095015     1.14410
C1693       C  0.70025886  0.99273088  0.28932563     1.05190
O1694       O  0.60887537  0.98887169  0.25886421    -0.94430
O1695       O  0.57678776  0.92661055  0.20347041    -0.90170
O1696       O  0.54064500  0.87743532  0.22154831    -0.83320
C1697       C  0.55134153  0.90117413  0.19515788     1.11830
O1698       O  0.69844920  0.88455647  0.29538849    -0.96400
Zr1699     Zr  0.64033503  0.87103572  0.28892192     1.88940
O1700       O  0.55413849  0.82379769  0.24145923    -0.73050
O1701       O  0.64054781  0.95012326  0.18500499    -0.52310
O1702       O  0.66557578  0.88434574  0.21346656    -0.96990
O1703       O  0.65079628  0.82696952  0.31265412    -0.54210
O1704       O  0.60637244  0.82939093  0.23970862    -0.73570
C1705       C  0.57653700  0.81624734  0.22701309     0.98770
O1706       O  0.49637635  0.85290972  0.28922907    -0.62390
O1707       O  0.56601350  0.85405774  0.47934629    -0.57190
O1708       O  0.51851894  0.81672622  0.33572818    -0.93870
O1709       O  0.54463293  0.81291147  0.40048783    -0.92300
O1710       O  0.54354436  0.91566401  0.45391685    -0.92660
O1711       O  0.51840755  0.92509027  0.37413408    -0.91440
C1712       C  0.52065578  0.80270975  0.37220005     1.17620
H1713       H  0.61366370  0.91981398  0.44915449     0.33560
H1714       H  0.55286708  0.92322742  0.29015278     0.44410
H1715       H  0.58233547  0.82300193  0.32585041     0.37940
H1716       H  0.67806023  0.93415772  0.28217705     0.34420
H1717       H  0.56269111  0.98708480  0.39136059     0.26210
H1718       H  0.64819711  0.97256429  0.17860518     0.32150
H1719       H  0.66601599  0.86495908  0.20196237     0.38060
H1720       H  0.54245330  0.93445671  0.46673478     0.32510
H1721       H  0.57035298  0.83805154  0.49591963     0.31390
H1722       H  0.59806382  0.80797823  0.44912309     0.33070
H1723       H  0.65418667  0.81789417  0.28370015     0.32040
H1724       H  0.50675402  0.90313183  0.36454313     0.36040
H1725       H  0.48839885  0.85040076  0.32123615     0.28770
H1726       H  0.72800650  0.97484423  0.39997541     0.33010
H1727       H  0.70308839  0.87166704  0.27241386     0.35860
H1728       H  0.57851593  0.87348996  0.49645431     0.28470
H1729       H  0.49635593  0.87282104  0.27943347     0.41340
H1730       H  0.62713336  0.00512169  0.27570683     0.31390
H1731       H  0.59314365  0.99662444  0.35941949     0.39010
H1732       H  0.62972098  0.81137532  0.32446018     0.30860
H1733       H  0.66064301  0.94681669  0.18674030     0.30920
H1734       H  0.72700888  0.95052587  0.36267546     0.31190
Zr1735     Zr  0.93996150  0.79093768  0.04053678     2.17510
O1736       O  0.95993391  0.75342050  0.06630788    -0.51170
O1737       O  0.98361278  0.83077213  0.08349399    -0.74370
O1738       O  0.97970825  0.78656203  0.98877305    -0.81160
O1739       O  0.87689189  0.76039735  0.13464598    -0.82900
O1740       O  0.97480815  0.80455899  0.91803355    -0.78530
O1741       O  0.92573483  0.76239816  0.11225602    -0.90160
O1742       O  0.97461996  0.87388956  0.09197906    -0.76120
O1743       O  0.95520658  0.84018345  0.00456612    -0.85610
O1744       O  0.91275015  0.81562977  0.08249216    -0.85300
O1745       O  0.92033960  0.77836576  0.96328088    -0.72060
O1746       O  0.88313509  0.75631768  0.03531043    -0.84200
Zr1747     Zr  0.85016898  0.81781175  0.96032841     2.26420
Zr1748     Zr  0.93583353  0.82817056  0.92698034     2.06270
Zr1749     Zr  0.85618438  0.78246869  0.07510786     2.10050
Zr1750     Zr  0.92615061  0.86383561  0.04588186     1.78760
O1751       O  0.81604700  0.73221654  0.10176523    -0.93000
O1752       O  0.96757860  0.91249537  0.01627763    -0.40810
O1753       O  0.86855203  0.83108221  0.03847585    -0.77440
O1754       O  0.90730341  0.85239237  0.96875215    -0.96130
O1755       O  0.87886008  0.79398818  0.91925720    -0.89430
O1756       O  0.83746421  0.76980090  0.99798806    -0.92270
C1757       C  0.99087406  0.85793581  0.09981047     1.01480
C1758       C  0.90192761  0.75485401  0.14046414     1.14410
C1759       C  0.48590675  0.79021088  0.94593759     1.05190
O1760       O  0.98656083  0.87528661  0.92641134    -0.94430
O1761       O  0.91882501  0.86050004  0.87622587    -0.90170
O1762       O  0.86817374  0.85432357  0.89808173    -0.83320
C1763       C  0.89389827  0.86695361  0.87354326     1.11830
O1764       O  0.88075752  0.70309010  0.96717253    -0.96400
Zr1765     Zr  0.86468359  0.74553781  0.95737484     1.88940
O1766       O  0.81390026  0.78261531  0.90021911    -0.73050
O1767       O  0.94274700  0.82047437  0.84586807    -0.52310
O1768       O  0.88187996  0.73354150  0.88363542    -0.96990
O1769       O  0.81951343  0.69734278  0.98162609    -0.54210
O1770       O  0.82038285  0.73815232  0.90622485    -0.73570
C1771       C  0.80679578  0.75423242  0.88838808     0.98770
O1772       O  0.82795795  0.85654639  0.96092878    -0.62390
O1773       O  0.84911509  0.81037328  0.14104144    -0.57190
O1774       O  0.79796664  0.79956333  0.99873016    -0.93870
O1775       O  0.80183432  0.77845656  0.06738237    -0.92300
O1776       O  0.91143998  0.87508527  0.12172398    -0.92660
O1777       O  0.90969440  0.90631907  0.04365900    -0.91440
C1778       C  0.78593722  0.78483196  0.03597076     1.17620
H1779       H  0.91944892  0.81865301  0.11423394     0.33560
H1780       H  0.91199032  0.87268737  0.95659964     0.44410
H1781       H  0.81463919  0.75590095  0.99624900     0.37940
H1782       H  0.92793471  0.76468281  0.94838175     0.34420
H1783       H  0.97608970  0.92581587  0.04365621     0.26210
H1784       H  0.96650713  0.83142765  0.84038901     0.32150
H1785       H  0.86220262  0.71642199  0.87086219     0.38060
H1786       H  0.93049683  0.89395949  0.13184296     0.32510
H1787       H  0.83006590  0.79486365  0.15754765     0.31390
H1788       H  0.80724898  0.73674004  0.13047142     0.33070
H1789       H  0.81148663  0.68521641  0.95307692     0.32040
H1790       H  0.88926031  0.89810583  0.02563324     0.36040
H1791       H  0.82004688  0.85658187  0.99254218     0.28770
H1792       H  0.98351680  0.76565322  0.07168767     0.33010
H1793       H  0.86892834  0.68765263  0.94323039     0.35860
H1794       H  0.86787850  0.81377214  0.16122474     0.28470
H1795       H  0.84700343  0.87696112  0.95858215     0.41340
H1796       H  0.00344962  0.86850689  0.93603734     0.31390
H1797       H  0.98567300  0.90743757  0.00661351     0.39010
H1798       H  0.80180786  0.70309040  0.99079776     0.30860
H1799       H  0.93763853  0.79815014  0.84297253     0.30920
H1800       H  0.95832699  0.73987994  0.03976858     0.31190
C1801       C  0.53195163  0.89776479  0.15278678    -0.16270
C1802       C  0.01842661  0.86929195  0.13249919    -0.31440
H1803       H  0.52635120  0.91663232  0.14124239     0.12750
H1804       H  0.02631203  0.85181919  0.14399801     0.13330
C1805       C  0.92410435  0.72675881  0.19259338    -0.16270
C1806       C  0.90176529  0.73751641  0.18212215    -0.31440
H1807       H  0.94617801  0.73339088  0.17242267     0.12750
H1808       H  0.88028215  0.73118655  0.20358910     0.13330
C1809       C  0.49372501  0.77225447  0.38062623    -0.16270
C1810       C  0.99942327  0.74700322  0.38408528    -0.31440
H1811       H  0.46908427  0.76959545  0.37392836     0.12750
H1812       H  0.02428715  0.74926420  0.38284481     0.13330
C1813       C  0.75765216  0.50804581  0.27298218    -0.16270
C1814       C  0.73240836  0.51601658  0.27486318    -0.31440
H1815       H  0.75316419  0.48381130  0.26984175     0.12750
H1816       H  0.73714379  0.04022756  0.27900535     0.13330
C1817       C  0.64950359  0.00669380  0.49000929    -0.16270
C1818       C  0.63018459  0.51384611  0.51867805    -0.31440
H1819       H  0.67560974  0.01687744  0.49628629     0.12750
H1820       H  0.60422385  0.50502979  0.51205029     0.13330
C1821       C  0.77030038  0.61337833  0.49500819    -0.16270
C1822       C  0.79919266  0.63696224  0.48665427    -0.31440
H1823       H  0.76267014  0.59147702  0.47682736     0.12750
H1824       H  0.80790632  0.65781751  0.50765210     0.13330
C1825       C  0.78234821  0.73831818  0.85082727    -0.16270
C1826       C  0.77699790  0.70902095  0.83800653    -0.31440
H1827       H  0.77096100  0.75085524  0.83225139     0.12750
H1828       H  0.78996121  0.69790020  0.85643990     0.13330
C1829       C  0.97540597  0.65090696  0.13752388    -0.16270
C1830       C  0.96043643  0.62225001  0.15631944    -0.31440
H1831       H  0.96902388  0.66902469  0.15053116     0.12750
H1832       H  0.96436884  0.60284306  0.14293071     0.13330
C1833       C  0.73532743  0.74194460  0.05727284    -0.16270
C1834       C  0.75074271  0.77056421  0.03952656    -0.31440
H1835       H  0.74802101  0.73070284  0.07605293     0.12750
H1836       H  0.73729258  0.78053555  0.01953425     0.13330
C1837       C  0.00262900  0.77191328  0.92739153    -0.16270
C1838       C  0.98704993  0.74050755  0.93031940    -0.31440
H1839       H  0.02905494  0.78322797  0.92548912     0.12750
H1840       H  0.46095086  0.72984996  0.93696782     0.13330
C1841       C  0.56836946  0.79158184  0.19203602    -0.16270
C1842       C  0.58995795  0.77985446  0.18258265    -0.31440
H1843       H  0.54640873  0.78514307  0.17165090     0.12750
H1844       H  0.61144194  0.78622586  0.20407247     0.13330
C1845       C  0.60206813  0.62811255  0.84124646    -0.16270
C1846       C  0.61967458  0.61158550  0.84891033    -0.31440
H1847       H  0.59571648  0.63142069  0.80638197     0.12750
H1848       H  0.62490718  0.60699425  0.88373942     0.13330
C1849       C  0.83681879  0.51261467  0.49419026    -0.16270
C1850       C  0.85485218  0.00229422  0.52040998    -0.31440
H1851       H  0.81089016  0.50397508  0.50109313     0.12750
H1852       H  0.88066153  0.01033391  0.51316775     0.13330
C1853       C  0.75266121  0.50508201  0.73055223    -0.16270
C1854       C  0.72024802  0.49489204  0.72268792    -0.31440
H1855       H  0.76725448  0.52891574  0.74105678     0.12750
H1856       H  0.70649036  0.47125870  0.71061844     0.13330
C1857       C  0.76728559  0.76870022  0.63681883    -0.16270
C1858       C  0.73867206  0.75252900  0.65752255    -0.31440
H1859       H  0.77817586  0.75812789  0.61329260     0.12750
H1860       H  0.72850846  0.76394709  0.68084601     0.13330
C1861       C  0.87510205  0.90548710  0.84583191    -0.16270
C1862       C  0.89339271  0.88947219  0.83910024    -0.31440
H1863       H  0.86935778  0.90997222  0.88042943     0.12750
H1864       H  0.90045902  0.88646837  0.80450523     0.13330
C1865       C  0.70866689  0.77414835  0.84870244    -0.16270
C1866       C  0.72631886  0.80524973  0.84452548    -0.31440
H1867       H  0.70881772  0.75884443  0.82119755     0.12750
H1868       H  0.72551645  0.81995314  0.87251979     0.13330
C1869       C  0.68339461  0.90063916  0.51052595    -0.16270
C1870       C  0.69218791  0.87775120  0.51934434    -0.31440
H1871       H  0.69504396  0.92280045  0.52812184     0.12750
H1872       H  0.68224072  0.85646144  0.49932586     0.13330
loop_ 
_geom_bond_atom_site_label_1 
_geom_bond_atom_site_label_2 
_geom_bond_distance 
_geom_bond_site_symmetry_2 
_ccdc_geom_bond_type 
Zr1           O2   2.444       .  S
Zr1           O3   2.471       .  S
Zr1           O4   2.433       .  S
Zr1           O7   2.425       .  S
Zr1           O9   2.385       .  S
Zr1          O10   2.376       .  S
Zr1          O11   2.423       .  S
Zr1          O12   2.400       .  S
O2           H58   0.990       .  S
O2           H66   0.991       .  S
O3           C23   1.290       .  A
O4           C25   1.284       .  A
O5          Zr15   2.400       .  S
O5           C24   1.277       .  A
O6          Zr14   2.489       .  S
O6           C25   1.294       .  A
O7           C24   1.285       .  A
O8          Zr16   2.428       .  S
O8           C23   1.281       .  A
O9          Zr14   2.415       .  S
O9          Zr16   2.392       .  S
O10         Zr15   2.391       .  S
O10         Zr16   2.373       .  S
O10          H45   0.966       .  S
O11         Zr14   2.406       .  S
O11         Zr31   2.367       .  S
O11          H48   0.961       .  S
O12         Zr15   2.385       .  S
O12         Zr31   2.398       .  S
Zr13         O38   2.448       .  S
Zr13         O32   2.482       .  S
Zr13         O40   2.399       .  S
Zr13         O28   2.371       .  S
Zr13         O19   2.406       .  S
Zr13         O20   2.416       .  S
Zr13         O21   2.376       .  S
Zr13         O22   2.380       .  S
Zr14         O33   2.435       .  S
Zr14         O26   2.435       .  S
Zr14         O27   2.497       .  S
Zr14         O20   2.400       .  S
Zr14         O21   2.405       .  S
Zr15         O17   2.437       .  S
Zr15         O39   2.438       .  S
Zr15         O41   2.398       .  S
Zr15         O19   2.385       .  S
Zr15         O22   2.394       .  S
Zr16         O42   2.436       .  S
Zr16         O43   2.436       .  S
Zr16         O18   2.436       .  S
Zr16         O19   2.398       .  S
Zr16         O20   2.389       .  S
O17          H54   0.990       .  S
O18          H49   0.990       .  S
O18          H63   0.990       .  S
O20          H46   0.964       .  S
O21         Zr31   2.382       .  S
O22         Zr31   2.356       .  S
O22          H47   0.965       .  S
C23         C446   1.497       .  S
C24         C466   1.463       .  S
C25         C917   1.483       .  S
O26          H62   0.990       .  S
O27          C29   1.297       .  A
O28          C29   1.275       .  A
C29         C457   1.474       .  S
O30         Zr31   2.440       .  S
O30          H59   0.990       .  S
Zr31         O34   2.438       .  S
Zr31         O35   2.441       .  S
Zr31         O36   2.427       .  S
O32          C37   1.292       .  A
O33          H50   0.990       .  S
O33          H65   0.990       .  S
O34          H51   0.990       .  S
O35          H55   0.990       .  S
O35          H64   0.989       .  S
O36          C37   1.281       .  A
C37         C462   1.490       .  S
O38          H57   0.990       .  S
O38          H61   0.990       .  S
O39          H53   0.990       .  S
O39          H60   0.990       .  S
O40          C44   1.278       .  A
O41          C44   1.269       .  A
O42          H52   0.990       .  S
O43          H56   0.990       .  S
C44         C453   1.439       .  S
Zr67         O68   2.441       .  S
Zr67         O69   2.484       .  S
Zr67         O70   2.396       .  S
Zr67         O73   2.414   1_556  S
Zr67         O75   2.378       .  S
Zr67         O76   2.382   1_556  S
Zr67         O77   2.420       .  S
Zr67         O78   2.416   1_556  S
O68         H124   0.991       .  S
O68         H132   0.990       .  S
O69          C89   1.292       .  A
O70          C91   1.279       .  A
O71         Zr81   2.402       .  S
O71          C90   1.272       .  A
O72         Zr80   2.485       .  S
O72          C91   1.294       .  A
O73          C90   1.281       .  A
O74         Zr82   2.424       .  S
O74          C89   1.282       .  A
O75         Zr80   2.408       .  S
O75         Zr82   2.388       .  S
O76         Zr81   2.395       .  S
O76         Zr82   2.348   1_554  S
O76         H111   0.965   1_554  S
O77         Zr80   2.397       .  S
O77         Zr97   2.388   1_556  S
O77         H114   0.964       .  S
O78         Zr81   2.389       .  S
O78         Zr97   2.411       .  S
Zr79        O104   2.446       .  S
Zr79         O98   2.435       .  S
Zr79        O106   2.435       .  S
Zr79         O94   2.427   1_554  S
Zr79         O85   2.402       .  S
Zr79         O86   2.401   1_554  S
Zr79         O87   2.386       .  S
Zr79         O88   2.375       .  S
Zr80         O99   2.435       .  S
Zr80         O92   2.433       .  S
Zr80         O93   2.469       .  S
Zr80         O86   2.412       .  S
Zr80         O87   2.401   1_556  S
Zr81         O83   2.434       .  S
Zr81        O105   2.440       .  S
Zr81        O107   2.414       .  S
Zr81         O85   2.384       .  S
Zr81         O88   2.378       .  S
Zr82        O108   2.435       .  S
Zr82        O109   2.436       .  S
Zr82         O84   2.437       .  S
Zr82         O85   2.406   1_556  S
Zr82         O86   2.358       .  S
O83         H120   0.990       .  S
O84         H115   0.990       .  S
O84         H129   0.990       .  S
O86         H112   0.962       .  S
O87         Zr97   2.387       .  S
O88         Zr97   2.366       .  S
O88         H113   0.966       .  S
C89         C461   1.502       .  S
C90         C429   1.444       .  S
C91         C441   1.475       .  S
O92         H128   0.990       .  S
O93        C1031   1.291       .  A
O94        C1031   1.284       .  A
C95        O1029   1.291       .  A
C95        O1030   1.283       .  A
C95         C434   1.471       .  S
O96         Zr97   2.441       .  S
O96         H125   0.990       .  S
Zr97        O100   2.437       .  S
Zr97        O101   2.440       .  S
Zr97        O102   2.451       .  S
O98         C103   1.286       .  A
O99         H116   0.990   1_455  S
O99         H131   0.990       .  S
O100        H117   0.990       .  S
O101        H121   0.990       .  S
O101        H130   0.989       .  S
O102        C103   1.286       .  A
C103       C1361   1.483   1_455  S
O104        H123   0.990       .  S
O104        H127   0.989       .  S
O105        H119   0.990       .  S
O105        H126   0.989       .  S
O106        C110   1.284       .  A
O107        C110   1.281       .  A
O108        H118   0.990       .  S
O109        H122   0.990       .  S
C110        C438   1.468       .  S
Zr133       O134   2.443       .  S
Zr133       O135   2.438       .  S
Zr133       O136   2.422       .  S
Zr133       O139   2.398       .  S
Zr133       O141   2.381       .  S
Zr133       O142   2.371       .  S
Zr133       O143   2.403       .  S
Zr133       O144   2.402       .  S
O134        H190   0.990       .  S
O134        H198   0.990       .  S
O135        C155   1.285       .  A
O136        C157   1.281       .  A
O137       Zr147   2.400       .  S
O137        C156   1.279       .  A
O138       Zr146   2.482       .  S
O138        C157   1.293       .  A
O139        C156   1.277       .  A
O140       Zr148   2.451       .  S
O140        C155   1.286       .  A
O141       Zr146   2.411       .  S
O141       Zr148   2.392       .  S
O142       Zr147   2.378       .  S
O142       Zr148   2.358       .  S
O142        H177   0.966       .  S
O143       Zr146   2.408       .  S
O143       Zr163   2.362       .  S
O143        H180   0.963       .  S
O144       Zr147   2.385       .  S
O144       Zr163   2.401       .  S
Zr145       O170   2.447       .  S
Zr145       O164   2.486       .  S
Zr145       O172   2.404       .  S
Zr145       O160   2.384       .  S
Zr145       O151   2.409       .  S
Zr145       O152   2.415       .  S
Zr145       O153   2.382       .  S
Zr145       O154   2.369       .  S
Zr146       O165   2.435       .  S
Zr146       O158   2.435       .  S
Zr146       O159   2.483       .  S
Zr146       O152   2.403       .  S
Zr146       O153   2.405       .  S
Zr147       O149   2.436       .  S
Zr147       O171   2.436       .  S
Zr147       O173   2.389       .  S
Zr147       O151   2.387       .  S
Zr147       O154   2.384       .  S
Zr148       O174   2.436       .  S
Zr148       O175   2.436       .  S
Zr148       O150   2.436       .  S
Zr148       O151   2.415       .  S
Zr148       O152   2.391       .  S
O149        H186   0.990       .  S
O150        H181   0.990       .  S
O150        H195   0.990       .  S
O152        H178   0.964       .  S
O153       Zr163   2.383       .  S
O154       Zr163   2.350       .  S
O154        H179   0.965       .  S
C155        C414   1.492       .  S
C156        C417   1.444       .  S
C157        C450   1.474   1_545  S
O158        H194   0.990       .  S
O159        C161   1.294       .  A
O160        C161   1.277       .  A
C161        C442   1.471       .  S
O162       Zr163   2.440       .  S
O162        H191   0.990       .  S
Zr163       O166   2.437       .  S
Zr163       O167   2.441       .  S
Zr163       O168   2.423       .  S
O164        C169   1.292       .  A
O165        H182   0.990       .  S
O165        H197   0.990       .  S
O166        H183   0.990       .  S
O167        H187   0.990       .  S
O167        H196   0.989       .  S
O168        C169   1.282       .  A
C169        C422   1.493       .  S
O170        H189   0.990       .  S
O170        H193   0.990       .  S
O171        H185   0.990       .  S
O171        H192   0.990       .  S
O172        C176   1.278       .  A
O173        C176   1.278       .  A
O174        H184   0.990       .  S
O175        H188   0.990       .  S
C176        C454   1.441       .  S
Zr199       O200   2.445       .  S
Zr199       O201   2.437       .  S
Zr199       O202   2.420       .  S
Zr199       O205   2.414       .  S
Zr199       O207   2.383       .  S
Zr199       O208   2.381       .  S
Zr199       O209   2.412       .  S
Zr199       O210   2.390       .  S
O200        H256   0.990       .  S
O200        H264   0.991       .  S
O201        C221   1.282       .  A
O202        C223   1.280       .  A
O203       Zr213   2.406       .  S
O203        C222   1.278       .  A
O204       Zr212   2.471       .  S
O204        C223   1.289       .  A
O205        C222   1.283       .  A
O206       Zr214   2.462       .  S
O206        C221   1.288       .  A
O207       Zr212   2.414       .  S
O207       Zr214   2.386       .  S
O208       Zr213   2.400       .  S
O208       Zr214   2.375       .  S
O208        H243   0.966       .  S
O209       Zr212   2.408       .  S
O209       Zr229   2.365       .  S
O209        H246   0.964       .  S
O210       Zr213   2.389       .  S
O210       Zr229   2.369       .  S
Zr211       O236   2.441       .  S
Zr211       O230   2.460       .  S
Zr211       O238   2.420       .  S
Zr211       O226   2.391       .  S
Zr211       O217   2.401       .  S
Zr211       O218   2.413       .  S
Zr211       O219   2.376       .  S
Zr211       O220   2.370       .  S
Zr212       O231   2.437       .  S
Zr212       O224   2.435       .  S
Zr212       O225   2.488       .  S
Zr212       O218   2.401       .  S
Zr212       O219   2.390       .  S
Zr213       O215   2.436       .  S
Zr213       O237   2.436       .  S
Zr213       O239   2.431       .  S
Zr213       O217   2.387       .  S
Zr213       O220   2.378       .  S
Zr214       O240   2.436       .  S
Zr214       O241   2.436       .  S
Zr214       O216   2.436       .  S
Zr214       O217   2.413       .  S
Zr214       O218   2.418       .  S
O215        H252   0.990       .  S
O216        H247   0.990       .  S
O216        H261   0.990       .  S
O218        H244   0.966       .  S
O219       Zr229   2.376       .  S
O220       Zr229   2.375       .  S
O220        H245   0.966       .  S
C221        C445   1.495       .  S
C222        C418   1.456       .  S
C223        C409   1.473       .  S
O224        H260   0.990       .  S
O225        C227   1.294       .  A
O226        C227   1.278       .  A
C227        C426   1.491       .  S
O228       Zr229   2.440       .  S
O228        H257   0.990       .  S
Zr229       O232   2.437       .  S
Zr229       O233   2.439       .  S
Zr229       O234   2.380       .  S
O230        C235   1.288       .  A
O231        H248   0.990       .  S
O231        H263   0.990       .  S
O232        H249   0.990       .  S
O233        H253   0.990       .  S
O233        H262   0.990       .  S
O234        C235   1.276       .  A
C235        C401   1.480       .  S
O236        H255   0.990       .  S
O236        H259   0.990       .  S
O237        H251   0.990       .  S
O237        H258   0.990       .  S
O238        C242   1.281       .  A
O239        C242   1.283       .  A
O240        H250   0.990       .  S
O241        H254   0.990       .  S
C242        C406   1.464       .  S
Zr265       O266   2.443       .  S
Zr265       O267   2.435       .  S
Zr265       O268   2.413       .  S
Zr265       O271   2.391       .  S
Zr265       O273   2.378       .  S
Zr265       O274   2.373       .  S
Zr265       O275   2.401       .  S
Zr265       O276   2.399       .  S
O266        H322   0.990       .  S
O266        H330   0.990       .  S
O267        C287   1.284       .  A
O268        C289   1.280       .  A
O269       Zr279   2.422       .  S
O269        C288   1.283       .  A
O270       Zr278   2.468       .  S
O270        C289   1.289       .  A
O271        C288   1.276       .  A
O272       Zr280   2.455       .  S
O272        C287   1.287       .  A
O273       Zr278   2.409       .  S
O273       Zr280   2.387       .  S
O274       Zr279   2.390       .  S
O274       Zr280   2.367       .  S
O274        H309   0.966       .  S
O275       Zr278   2.406       .  S
O275       Zr295   2.371       .  S
O275        H312   0.964       .  S
O276       Zr279   2.390       .  S
O276       Zr295   2.387       .  S
Zr277       O302   2.442   1_455  S
Zr277       O296   2.445       .  S
Zr277       O304   2.418       .  S
Zr277       O292   2.396       .  S
Zr277       O283   2.397       .  S
Zr277       O284   2.407       .  S
Zr277       O285   2.377       .  S
Zr277       O286   2.374       .  S
Zr278       O297   2.437       .  S
Zr278       O290   2.435       .  S
Zr278       O291   2.476       .  S
Zr278       O284   2.401       .  S
Zr278       O285   2.393       .  S
Zr279       O281   2.436       .  S
Zr279       O303   2.435       .  S
Zr279       O305   2.434       .  S
Zr279       O283   2.395       .  S
Zr279       O286   2.377       .  S
Zr280       O306   2.435       .  S
Zr280       O307   2.435       .  S
Zr280       O282   2.436       .  S
Zr280       O283   2.409       .  S
Zr280       O284   2.409       .  S
O281        H318   0.990       .  S
O282        H313   0.990       .  S
O282        H327   0.990       .  S
O284        H310   0.966       .  S
O285       Zr295   2.376       .  S
O286       Zr295   2.369       .  S
O286        H311   0.966       .  S
C287        C413   1.489       .  S
C288        C465   1.447       .  S
C289        C878   1.469       .  S
O290        H326   0.990       .  S
O291        C293   1.291       .  A
O292        C293   1.280       .  A
C293        C397   1.485       .  S
O294       Zr295   2.440       .  S
O294        H323   0.990       .  S
Zr295       O298   2.437       .  S
Zr295       O299   2.439       .  S
Zr295       O300   2.401       .  S
O296        C301   1.285       .  A
O297        H314   0.990       .  S
O297        H329   0.990       .  S
O298        H315   0.990       .  S
O299        H319   0.990       .  S
O299        H328   0.990       .  S
O300        C301   1.280       .  A
C301        C437   1.479       .  S
O302        H321   0.990       .  S
O302        H325   0.990       .  S
O303        H317   0.990       .  S
O303        H324   0.990       .  S
O304        C308   1.281       .  A
O305        C308   1.285       .  A
O306        H316   0.990       .  S
O307        H320   0.990       .  S
C308        C405   1.465   1_455  S
Zr331       O332   2.440       .  S
Zr331       O333   2.428       .  S
Zr331       O334   2.428   1_554  S
Zr331       O337   2.428       .  S
Zr331       O339   2.386       .  S
Zr331       O340   2.375       .  S
Zr331       O341   2.404   1_554  S
Zr331       O342   2.402       .  S
O332        H388   0.989       .  S
O332        H396   0.990       .  S
O333        C353   1.283       .  A
O334       C1291   1.283       .  A
O335       Zr345   2.416       .  S
O335        C354   1.282       .  A
O336       Zr344   2.480       .  S
O336       C1291   1.292       .  A
O337        C354   1.282       .  A
O338       Zr346   2.444       .  S
O338        C353   1.284       .  A
O339       Zr344   2.407   1_554  S
O339       Zr346   2.392       .  S
O340       Zr345   2.382       .  S
O340       Zr346   2.364       .  S
O340        H375   0.966       .  S
O341       Zr344   2.411       .  S
O341       Zr361   2.343       .  S
O341        H378   0.961       .  S
O342       Zr345   2.386       .  S
O342       Zr361   2.402   1_554  S
Zr343       O368   2.449       .  S
Zr343       O362   2.498       .  S
Zr343       O370   2.422       .  S
Zr343       O358   2.403       .  S
Zr343       O349   2.417   1_556  S
Zr343       O350   2.420       .  S
Zr343       O351   2.382       .  S
Zr343       O352   2.374       .  S
Zr344       O363   2.435       .  S
Zr344       O356   2.435       .  S
Zr344       O357   2.483       .  S
Zr344       O350   2.401       .  S
Zr344       O351   2.408       .  S
Zr345       O347   2.436       .  S
Zr345       O369   2.436       .  S
Zr345       O371   2.401       .  S
Zr345       O349   2.388       .  S
Zr345       O352   2.390   1_554  S
Zr346       O372   2.436       .  S
Zr346       O373   2.437       .  S
Zr346       O348   2.436       .  S
Zr346       O349   2.416       .  S
Zr346       O350   2.386   1_554  S
O347        H384   0.990       .  S
O348        H379   0.990       .  S
O348        H393   0.990       .  S
O350        H376   0.964       .  S
O351       Zr361   2.388       .  S
O352       Zr361   2.341       .  S
O352        H377   0.964       .  S
C353        C398   1.480       .  S
C354        C402   1.467       .  S
C355       O1270   1.283       .  A
C355       O1272   1.292       .  A
C355       C1369   1.474   1_655  S
O356        H392   0.990       .  S
O357        C359   1.294       .  A
O358        C359   1.280       .  A
C359        C458   1.476       .  S
O360       Zr361   2.439       .  S
O360        H389   0.990       .  S
Zr361       O364   2.438       .  S
Zr361       O365   2.441       .  S
Zr361       O366   2.407       .  S
O362        C367   1.295       .  A
O363        H380   0.990       .  S
O363        H395   0.990       .  S
O364        H381   0.990       .  S
O365        H385   0.990       .  S
O365        H394   0.989       .  S
O366        C367   1.280       .  A
C367        C421   1.513       .  S
O368        H387   0.990       .  S
O368        H391   0.990       .  S
O369        H383   0.990       .  S
O369        H390   0.990       .  S
O370        C374   1.282   1_556  A
O371        C374   1.280       .  A
O372        H382   0.990       .  S
O373        H386   0.990       .  S
C374        C430   1.448       .  S
C397        H399   1.086       .  S
C397       C1334   1.350       .  D
C398        H400   1.089       .  S
C398       C1333   1.350       .  D
C401        H403   1.086       .  S
C401        C402   1.351       .  D
C402        H404   1.088       .  S
C405        H407   1.088       .  S
C405       C1342   1.338       .  D
C406        H408   1.087       .  S
C406       C1341   1.338       .  D
C409        H411   1.087   1_545  S
C409        C410   1.352       .  D
C410        C757   1.469   1_545  S
C410        H880   1.087       .  S
H412        C878   1.087       .  S
C413        H415   1.087       .  S
C413        C882   1.351       .  D
C414        H416   1.086       .  S
C414        C881   1.351       .  D
C417        H419   1.087       .  S
C417        C418   1.336       .  D
C418        H420   1.088       .  S
C421        H423   1.086       .  S
C421        C422   1.362       .  D
C422        H424   1.086       .  S
C425       C1039   1.484       .  S
C425        H427   1.088       .  S
C425        C426   1.354       .  D
C426        H428   1.086       .  S
C429        H431   1.086       .  S
C429        C430   1.342       .  D
C430        H432   1.088       .  S
C433       C1291   1.474       .  S
C433        H435   1.087       .  S
C433        C434   1.357       .  D
C434       H1372   1.087       .  S
H436       C1370   1.087       .  S
C437        H439   1.086       .  S
C437        C438   1.346       .  D
C438        H440   1.088       .  S
C441        H443   1.087       .  S
C441        C442   1.357       .  D
C442        H444   1.086       .  S
C445        H447   1.087       .  S
C445        C914   1.349       .  D
C446        H448   1.087       .  S
C446        C913   1.349       .  D
C449        C493   1.483   1_545  S
C449        H451   1.086       .  S
C449        C450   1.358   1_545  D
C450        H452   1.087       .  S
C453        H455   1.087       .  S
C453        C454   1.339       .  D
C454        H456   1.088       .  S
C457        H459   1.086       .  S
C457        C458   1.359       .  D
C458        H460   1.087       .  S
C461        H463   1.086       .  S
C461        C462   1.356       .  D
C462        H464   1.086       .  S
C465        H467   1.087       .  S
C465        C466   1.335       .  D
C466        H468   1.087       .  S
Zr469       O470   2.444       .  S
Zr469       O471   2.470       .  S
Zr469       O472   2.432       .  S
Zr469       O475   2.425       .  S
Zr469       O477   2.385       .  S
Zr469       O478   2.376       .  S
Zr469       O479   2.423       .  S
Zr469       O480   2.399       .  S
O470        H526   0.990       .  S
O470        H534   0.991       .  S
O471        C491   1.289       .  A
O472        C493   1.283       .  A
O473       Zr483   2.399       .  S
O473        C492   1.277       .  A
O474       Zr482   2.489       .  S
O474        C493   1.294       .  A
O475        C492   1.285       .  A
O476       Zr484   2.429       .  S
O476        C491   1.281       .  A
O477       Zr482   2.415       .  S
O477       Zr484   2.392       .  S
O478       Zr483   2.391       .  S
O478       Zr484   2.373       .  S
O478        H513   0.966       .  S
O479       Zr482   2.406       .  S
O479       Zr499   2.367       .  S
O479        H516   0.961       .  S
O480       Zr483   2.385       .  S
O480       Zr499   2.397       .  S
Zr481       O506   2.448       .  S
Zr481       O500   2.482       .  S
Zr481       O508   2.400       .  S
Zr481       O496   2.372       .  S
Zr481       O487   2.406       .  S
Zr481       O488   2.417       .  S
Zr481       O489   2.376       .  S
Zr481       O490   2.379       .  S
Zr482       O501   2.435       .  S
Zr482       O494   2.435       .  S
Zr482       O495   2.497       .  S
Zr482       O488   2.400       .  S
Zr482       O489   2.405       .  S
Zr483       O485   2.437       .  S
Zr483       O507   2.438       .  S
Zr483       O509   2.398       .  S
Zr483       O487   2.385       .  S
Zr483       O490   2.394       .  S
Zr484       O510   2.436       .  S
Zr484       O511   2.436       .  S
Zr484       O486   2.436       .  S
Zr484       O487   2.399       .  S
Zr484       O488   2.389       .  S
O485        H522   0.990       .  S
O486        H517   0.990       .  S
O486        H531   0.990       .  S
O488        H514   0.964       .  S
O489       Zr499   2.382       .  S
O490       Zr499   2.357       .  S
O490        H515   0.965       .  S
C491        C914   1.496   1_565  S
C492        C934   1.462       .  S
O494        H530   0.990   1_565  S
O495        C497   1.297       .  A
O496        C497   1.275       .  A
C497        C925   1.475       .  S
O498       Zr499   2.440       .  S
O498        H527   0.990       .  S
Zr499       O502   2.438       .  S
Zr499       O503   2.441       .  S
Zr499       O504   2.426       .  S
O500        C505   1.292       .  A
O501        H518   0.990       .  S
O501        H533   0.990       .  S
O502        H519   0.990       .  S
O503        H523   0.990       .  S
O503        H532   0.989       .  S
O504        C505   1.281       .  A
C505        C930   1.490       .  S
O506        H525   0.989       .  S
O506        H529   0.990       .  S
O507        H521   0.990       .  S
O507        H528   0.990       .  S
O508        C512   1.278       .  A
O509        C512   1.269       .  A
O510        H520   0.990       .  S
O511        H524   0.990       .  S
C512        C921   1.439       .  S
Zr535       O536   2.441       .  S
Zr535       O537   2.484       .  S
Zr535       O538   2.396       .  S
Zr535       O541   2.413   1_556  S
Zr535       O543   2.378       .  S
Zr535       O544   2.382   1_556  S
Zr535       O545   2.420       .  S
Zr535       O546   2.416   1_556  S
O536        H592   0.990       .  S
O536        H600   0.990       .  S
O537        C557   1.292       .  A
O538        C559   1.278       .  A
O539       Zr549   2.402       .  S
O539        C558   1.272       .  A
O540       Zr548   2.485       .  S
O540        C559   1.294       .  A
O541        C558   1.281       .  A
O542       Zr550   2.424       .  S
O542        C557   1.282       .  A
O543       Zr548   2.408       .  S
O543       Zr550   2.388       .  S
O544       Zr549   2.395       .  S
O544       Zr550   2.348   1_554  S
O544        H579   0.965   1_554  S
O545       Zr548   2.397       .  S
O545       Zr565   2.388   1_556  S
O545        H582   0.964       .  S
O546       Zr549   2.389       .  S
O546       Zr565   2.411       .  S
Zr547       O572   2.445       .  S
Zr547       O566   2.435       .  S
Zr547       O574   2.436       .  S
Zr547       O562   2.427   1_554  S
Zr547       O553   2.401       .  S
Zr547       O554   2.401   1_554  S
Zr547       O555   2.386       .  S
Zr547       O556   2.375       .  S
Zr548       O567   2.435       .  S
Zr548       O560   2.433       .  S
Zr548       O561   2.469       .  S
Zr548       O554   2.412       .  S
Zr548       O555   2.401   1_556  S
Zr549       O551   2.434       .  S
Zr549       O573   2.440       .  S
Zr549       O575   2.414       .  S
Zr549       O553   2.384       .  S
Zr549       O556   2.378       .  S
Zr550       O576   2.435       .  S
Zr550       O577   2.436       .  S
Zr550       O552   2.437       .  S
Zr550       O553   2.406   1_556  S
Zr550       O554   2.358       .  S
O551        H588   0.990       .  S
O552        H583   0.990       .  S
O552        H597   0.990       .  S
O554        H580   0.962       .  S
O555       Zr565   2.387       .  S
O556       Zr565   2.366       .  S
O556        H581   0.966       .  S
C557        C929   1.502       .  S
C558        C897   1.444       .  S
C559        C909   1.475       .  S
O560        H596   0.990       .  S
O561       C1499   1.291       .  A
O562       C1499   1.284       .  A
C563       O1497   1.291       .  A
C563       O1498   1.284       .  A
C563        C902   1.471       .  S
O564       Zr565   2.441       .  S
O564        H593   0.990       .  S
Zr565       O568   2.437       .  S
Zr565       O569   2.440       .  S
Zr565       O570   2.451       .  S
O566        C571   1.286       .  A
O567        H584   0.990   1_455  S
O567        H599   0.990       .  S
O568        H585   0.990       .  S
O569        H589   0.990       .  S
O569        H598   0.989       .  S
O570        C571   1.286       .  A
C571       C1829   1.483   1_455  S
O572        H591   0.990       .  S
O572        H595   0.989       .  S
O573        H587   0.990       .  S
O573        H594   0.989       .  S
O574        C578   1.284       .  A
O575        C578   1.281       .  A
O576        H586   0.990       .  S
O577        H590   0.990       .  S
C578        C906   1.468       .  S
Zr601       O602   2.443       .  S
Zr601       O603   2.437       .  S
Zr601       O604   2.422       .  S
Zr601       O607   2.397       .  S
Zr601       O609   2.381       .  S
Zr601       O610   2.371       .  S
Zr601       O611   2.402       .  S
Zr601       O612   2.402       .  S
O602        H658   0.990       .  S
O602        H666   0.990       .  S
O603        C623   1.285       .  A
O604        C625   1.281       .  A
O605       Zr615   2.400       .  S
O605        C624   1.279       .  A
O606       Zr614   2.482       .  S
O606        C625   1.293       .  A
O607        C624   1.277       .  A
O608       Zr616   2.452       .  S
O608        C623   1.286       .  A
O609       Zr614   2.411       .  S
O609       Zr616   2.391       .  S
O610       Zr615   2.378       .  S
O610       Zr616   2.358       .  S
O610        H645   0.966       .  S
O611       Zr614   2.408       .  S
O611       Zr631   2.361       .  S
O611        H648   0.963       .  S
O612       Zr615   2.385       .  S
O612       Zr631   2.400       .  S
Zr613       O638   2.448       .  S
Zr613       O632   2.487       .  S
Zr613       O640   2.404       .  S
Zr613       O628   2.384       .  S
Zr613       O619   2.409       .  S
Zr613       O620   2.415       .  S
Zr613       O621   2.382       .  S
Zr613       O622   2.369       .  S
Zr614       O633   2.435       .  S
Zr614       O626   2.435       .  S
Zr614       O627   2.482       .  S
Zr614       O620   2.403       .  S
Zr614       O621   2.405       .  S
Zr615       O617   2.436       .  S
Zr615       O639   2.436       .  S
Zr615       O641   2.390       .  S
Zr615       O619   2.387       .  S
Zr615       O622   2.384       .  S
Zr616       O642   2.436       .  S
Zr616       O643   2.436       .  S
Zr616       O618   2.436       .  S
Zr616       O619   2.415       .  S
Zr616       O620   2.391       .  S
O617        H654   0.990       .  S
O618        H649   0.990       .  S
O618        H663   0.990       .  S
O620        H646   0.964       .  S
O621       Zr631   2.383       .  S
O622       Zr631   2.350       .  S
O622        H647   0.965       .  S
C623        C882   1.492       .  S
C624        C885   1.444       .  S
C625        C918   1.474       .  S
O626        H662   0.990       .  S
O627        C629   1.294       .  A
O628        C629   1.277       .  A
C629        C910   1.471       .  S
O630       Zr631   2.440       .  S
O630        H659   0.990       .  S
Zr631       O634   2.437       .  S
Zr631       O635   2.441       .  S
Zr631       O636   2.421       .  S
O632        C637   1.292       .  A
O633        H650   0.990       .  S
O633        H665   0.990       .  S
O634        H651   0.990       .  S
O635        H655   0.990       .  S
O635        H664   0.989       .  S
O636        C637   1.282       .  A
C637        C890   1.493       .  S
O638        H657   0.990       .  S
O638        H661   0.990       .  S
O639        H653   0.990       .  S
O639        H660   0.990       .  S
O640        C644   1.278       .  A
O641        C644   1.278       .  A
O642        H652   0.990       .  S
O643        H656   0.990       .  S
C644        C922   1.441       .  S
Zr667       O668   2.445       .  S
Zr667       O669   2.436       .  S
Zr667       O670   2.420       .  S
Zr667       O673   2.413       .  S
Zr667       O675   2.383       .  S
Zr667       O676   2.381       .  S
Zr667       O677   2.412       .  S
Zr667       O678   2.391       .  S
O668        H724   0.990       .  S
O668        H732   0.991       .  S
O669        C689   1.282       .  A
O670        C691   1.280       .  A
O671       Zr681   2.406       .  S
O671        C690   1.278       .  A
O672       Zr680   2.471       .  S
O672        C691   1.289       .  A
O673        C690   1.282       .  A
O674       Zr682   2.464       .  S
O674        C689   1.288       .  A
O675       Zr680   2.414       .  S
O675       Zr682   2.386       .  S
O676       Zr681   2.400       .  S
O676       Zr682   2.375       .  S
O676        H711   0.966       .  S
O677       Zr680   2.408       .  S
O677       Zr697   2.365       .  S
O677        H714   0.964       .  S
O678       Zr681   2.389       .  S
O678       Zr697   2.369       .  S
Zr679       O704   2.441       .  S
Zr679       O698   2.460       .  S
Zr679       O706   2.420       .  S
Zr679       O694   2.391       .  S
Zr679       O685   2.402       .  S
Zr679       O686   2.413       .  S
Zr679       O687   2.376       .  S
Zr679       O688   2.370       .  S
Zr680       O699   2.437       .  S
Zr680       O692   2.435       .  S
Zr680       O693   2.488       .  S
Zr680       O686   2.401       .  S
Zr680       O687   2.390       .  S
Zr681       O683   2.436       .  S
Zr681       O705   2.436       .  S
Zr681       O707   2.432       .  S
Zr681       O685   2.387       .  S
Zr681       O688   2.378       .  S
Zr682       O708   2.436       .  S
Zr682       O709   2.436       .  S
Zr682       O684   2.436       .  S
Zr682       O685   2.413       .  S
Zr682       O686   2.419       .  S
O683        H720   0.990       .  S
O684        H715   0.990       .  S
O684        H729   0.990       .  S
O686        H712   0.966       .  S
O687       Zr697   2.376       .  S
O688       Zr697   2.375       .  S
O688        H713   0.966       .  S
C689        C913   1.495       .  S
C690        C886   1.455       .  S
C691        C877   1.473       .  S
O692        H728   0.990       .  S
O693        C695   1.294       .  A
O694        C695   1.278       .  A
C695        C894   1.490       .  S
O696       Zr697   2.440       .  S
O696        H725   0.990       .  S
Zr697       O700   2.437       .  S
Zr697       O701   2.439       .  S
Zr697       O702   2.379       .  S
O698        C703   1.288       .  A
O699        H716   0.990       .  S
O699        H731   0.990       .  S
O700        H717   0.990       .  S
O701        H721   0.990       .  S
O701        H730   0.990       .  S
O702        C703   1.276       .  A
C703        C869   1.480       .  S
O704        H723   0.990       .  S
O704        H727   0.990       .  S
O705        H719   0.990       .  S
O705        H726   0.990       .  S
O706        C710   1.281       .  A
O707        C710   1.283       .  A
O708        H718   0.990       .  S
O709        H722   0.990       .  S
C710        C874   1.464       .  S
Zr733       O734   2.443       .  S
Zr733       O735   2.434       .  S
Zr733       O736   2.413       .  S
Zr733       O739   2.391       .  S
Zr733       O741   2.378       .  S
Zr733       O742   2.373       .  S
Zr733       O743   2.401       .  S
Zr733       O744   2.399       .  S
O734        H790   0.990       .  S
O734        H798   0.990       .  S
O735        C755   1.284       .  A
O736        C757   1.280       .  A
O737       Zr747   2.422       .  S
O737        C756   1.283       .  A
O738       Zr746   2.469       .  S
O738        C757   1.289       .  A
O739        C756   1.276       .  A
O740       Zr748   2.456       .  S
O740        C755   1.287       .  A
O741       Zr746   2.408       .  S
O741       Zr748   2.387       .  S
O742       Zr747   2.390       .  S
O742       Zr748   2.367       .  S
O742        H777   0.966       .  S
O743       Zr746   2.405       .  S
O743       Zr763   2.372       .  S
O743        H780   0.964       .  S
O744       Zr747   2.389       .  S
O744       Zr763   2.388       .  S
Zr745       O770   2.442   1_455  S
Zr745       O764   2.445       .  S
Zr745       O772   2.419       .  S
Zr745       O760   2.396       .  S
Zr745       O751   2.397       .  S
Zr745       O752   2.407       .  S
Zr745       O753   2.377       .  S
Zr745       O754   2.374       .  S
Zr746       O765   2.437       .  S
Zr746       O758   2.435       .  S
Zr746       O759   2.475       .  S
Zr746       O752   2.402       .  S
Zr746       O753   2.393       .  S
Zr747       O749   2.436       .  S
Zr747       O771   2.436       .  S
Zr747       O773   2.434       .  S
Zr747       O751   2.395       .  S
Zr747       O754   2.377       .  S
Zr748       O774   2.435       .  S
Zr748       O775   2.435       .  S
Zr748       O750   2.436       .  S
Zr748       O751   2.409       .  S
Zr748       O752   2.409       .  S
O749        H786   0.990       .  S
O750        H781   0.990       .  S
O750        H795   0.990       .  S
O752        H778   0.966       .  S
O753       Zr763   2.376       .  S
O754       Zr763   2.370       .  S
O754        H779   0.966       .  S
C755        C881   1.489   1_565  S
C756        C933   1.447       .  S
O758        H794   0.990   1_565  S
O759        C761   1.291       .  A
O760        C761   1.280       .  A
C761        C865   1.485       .  S
O762       Zr763   2.440       .  S
O762        H791   0.990       .  S
Zr763       O766   2.437       .  S
Zr763       O767   2.439       .  S
Zr763       O768   2.402       .  S
O764        C769   1.285       .  A
O765        H782   0.990       .  S
O765        H797   0.990       .  S
O766        H783   0.990       .  S
O767        H787   0.990       .  S
O767        H796   0.990       .  S
O768        C769   1.281       .  A
C769        C905   1.479       .  S
O770        H789   0.990       .  S
O770        H793   0.990       .  S
O771        H785   0.990       .  S
O771        H792   0.990       .  S
O772        C776   1.281       .  A
O773        C776   1.284       .  A
O774        H784   0.990       .  S
O775        H788   0.990       .  S
C776        C873   1.465   1_455  S
Zr799       O800   2.440       .  S
Zr799       O801   2.427       .  S
Zr799       O802   2.429   1_554  S
Zr799       O805   2.428       .  S
Zr799       O807   2.386       .  S
Zr799       O808   2.375       .  S
Zr799       O809   2.404   1_554  S
Zr799       O810   2.402       .  S
O800        H856   0.989       .  S
O800        H864   0.990       .  S
O801        C821   1.282       .  A
O802       C1759   1.283       .  A
O803       Zr813   2.416       .  S
O803        C822   1.282       .  A
O804       Zr812   2.480       .  S
O804       C1759   1.292       .  A
O805        C822   1.282       .  A
O806       Zr814   2.445       .  S
O806        C821   1.284       .  A
O807       Zr812   2.407   1_554  S
O807       Zr814   2.393       .  S
O808       Zr813   2.382       .  S
O808       Zr814   2.364       .  S
O808        H843   0.966       .  S
O809       Zr812   2.412       .  S
O809       Zr829   2.342       .  S
O809        H846   0.961       .  S
O810       Zr813   2.386       .  S
O810       Zr829   2.402   1_554  S
Zr811       O836   2.449       .  S
Zr811       O830   2.499       .  S
Zr811       O838   2.422       .  S
Zr811       O826   2.403       .  S
Zr811       O817   2.417   1_556  S
Zr811       O818   2.420       .  S
Zr811       O819   2.382       .  S
Zr811       O820   2.374       .  S
Zr812       O831   2.435       .  S
Zr812       O824   2.435       .  S
Zr812       O825   2.483       .  S
Zr812       O818   2.400       .  S
Zr812       O819   2.408       .  S
Zr813       O815   2.436       .  S
Zr813       O837   2.436       .  S
Zr813       O839   2.401       .  S
Zr813       O817   2.388       .  S
Zr813       O820   2.390   1_554  S
Zr814       O840   2.436       .  S
Zr814       O841   2.437       .  S
Zr814       O816   2.436       .  S
Zr814       O817   2.416       .  S
Zr814       O818   2.387   1_554  S
O815        H852   0.990       .  S
O816        H847   0.990       .  S
O816        H861   0.990       .  S
O818        H844   0.964       .  S
O819       Zr829   2.388       .  S
O820       Zr829   2.341       .  S
O820        H845   0.964       .  S
C821        C866   1.479       .  S
C822        C870   1.467       .  S
C823       O1738   1.283       .  A
C823       O1740   1.292       .  A
C823       C1837   1.474   1_655  S
O824        H860   0.990       .  S
O825        C827   1.294       .  A
O826        C827   1.280       .  A
C827        C926   1.476       .  S
O828       Zr829   2.439       .  S
O828        H857   0.990       .  S
Zr829       O832   2.438       .  S
Zr829       O833   2.441       .  S
Zr829       O834   2.406       .  S
O830        C835   1.295       .  A
O831        H848   0.990       .  S
O831        H863   0.990       .  S
O832        H849   0.990       .  S
O833        H853   0.990       .  S
O833        H862   0.989       .  S
O834        C835   1.280       .  A
C835        C889   1.513       .  S
O836        H855   0.990       .  S
O836        H859   0.990       .  S
O837        H851   0.990       .  S
O837        H858   0.990       .  S
O838        C842   1.282   1_556  A
O839        C842   1.280       .  A
O840        H850   0.990       .  S
O841        H854   0.990       .  S
C842        C898   1.448       .  S
C865        H867   1.086       .  S
C865       C1802   1.350       .  D
C866        H868   1.089       .  S
C866       C1801   1.350       .  D
C869        H871   1.086       .  S
C869        C870   1.351       .  D
C870        H872   1.088       .  S
C873        H875   1.088       .  S
C873       C1810   1.338       .  D
C874        H876   1.087       .  S
C874       C1809   1.338       .  D
C877        H879   1.087       .  S
C877        C878   1.352       .  D
C881        H883   1.087       .  S
C882        H884   1.086       .  S
C885        H887   1.087       .  S
C885        C886   1.336       .  D
C886        H888   1.088       .  S
C889        H891   1.086       .  S
C889        C890   1.362       .  D
C890        H892   1.086       .  S
C893       C1507   1.484       .  S
C893        H895   1.088       .  S
C893        C894   1.354       .  D
C894        H896   1.086       .  S
C897        H899   1.086       .  S
C897        C898   1.342       .  D
C898        H900   1.088       .  S
C901       C1759   1.475       .  S
C901        H903   1.087       .  S
C901        C902   1.357       .  D
C902       H1840   1.087       .  S
H904       C1838   1.087       .  S
C905        H907   1.086       .  S
C905        C906   1.346       .  D
C906        H908   1.088       .  S
C909        H911   1.087       .  S
C909        C910   1.357       .  D
C910        H912   1.086       .  S
C913        H915   1.087       .  S
C914        H916   1.087       .  S
C917        H919   1.086       .  S
C917        C918   1.358       .  D
C918        H920   1.087       .  S
C921        H923   1.087       .  S
C921        C922   1.338       .  D
C922        H924   1.089       .  S
C925        H927   1.086       .  S
C925        C926   1.359       .  D
C926        H928   1.087       .  S
C929        H931   1.086       .  S
C929        C930   1.356       .  D
C930        H932   1.086       .  S
C933        H935   1.087       .  S
C933        C934   1.335       .  D
C934        H936   1.088       .  S
Zr937       O938   2.444       .  S
Zr937       O939   2.471       .  S
Zr937       O940   2.433       .  S
Zr937       O943   2.426       .  S
Zr937       O945   2.385       .  S
Zr937       O946   2.376       .  S
Zr937       O947   2.423       .  S
Zr937       O948   2.399       .  S
O938        H994   0.990       .  S
O938       H1002   0.991       .  S
O939        C959   1.289       .  A
O940        C961   1.284       .  A
O941       Zr951   2.400       .  S
O941        C960   1.277       .  A
O942       Zr950   2.489       .  S
O942        C961   1.294       .  A
O943        C960   1.285       .  A
O944       Zr952   2.428       .  S
O944        C959   1.281       .  A
O945       Zr950   2.415       .  S
O945       Zr952   2.392       .  S
O946       Zr951   2.391       .  S
O946       Zr952   2.373       .  S
O946        H981   0.966       .  S
O947       Zr950   2.406       .  S
O947       Zr967   2.367       .  S
O947        H984   0.961       .  S
O948       Zr951   2.385       .  S
O948       Zr967   2.397       .  S
Zr949       O974   2.448       .  S
Zr949       O968   2.481       .  S
Zr949       O976   2.399       .  S
Zr949       O964   2.372       .  S
Zr949       O955   2.406       .  S
Zr949       O956   2.416       .  S
Zr949       O957   2.376       .  S
Zr949       O958   2.379       .  S
Zr950       O969   2.435       .  S
Zr950       O962   2.435       .  S
Zr950       O963   2.497       .  S
Zr950       O956   2.400       .  S
Zr950       O957   2.405       .  S
Zr951       O953   2.437       .  S
Zr951       O975   2.438       .  S
Zr951       O977   2.399       .  S
Zr951       O955   2.385       .  S
Zr951       O958   2.394       .  S
Zr952       O978   2.436       .  S
Zr952       O979   2.436       .  S
Zr952       O954   2.436       .  S
Zr952       O955   2.398       .  S
Zr952       O956   2.389       .  S
O953        H990   0.990       .  S
O954        H985   0.990       .  S
O954        H999   0.990       .  S
O956        H982   0.964       .  S
O957       Zr967   2.382       .  S
O958       Zr967   2.356       .  S
O958        H983   0.965       .  S
C959       C1382   1.496       .  S
C960       C1402   1.463       .  S
C961       C1853   1.483       .  S
O962        H998   0.990       .  S
O963        C965   1.297       .  A
O964        C965   1.275       .  A
C965       C1393   1.474       .  S
O966       Zr967   2.440       .  S
O966        H995   0.990       .  S
Zr967       O970   2.438       .  S
Zr967       O971   2.441       .  S
Zr967       O972   2.427       .  S
O968        C973   1.292       .  A
O969        H986   0.990       .  S
O969       H1001   0.990       .  S
O970        H987   0.990       .  S
O971        H991   0.990       .  S
O971       H1000   0.989       .  S
O972        C973   1.281       .  A
C973       C1398   1.490       .  S
O974        H993   0.990       .  S
O974        H997   0.990       .  S
O975        H989   0.990       .  S
O975        H996   0.990       .  S
O976        C980   1.278       .  A
O977        C980   1.269       .  A
O978        H988   0.990       .  S
O979        H992   0.990       .  S
C980       C1389   1.439       .  S
Zr1003     O1004   2.439       .  S
Zr1003     O1005   2.485       .  S
Zr1003     O1006   2.393       .  S
Zr1003     O1009   2.416   1_556  S
Zr1003     O1011   2.379       .  S
Zr1003     O1012   2.371       .  S
Zr1003     O1013   2.419       .  S
Zr1003     O1014   2.417   1_556  S
O1004      H1060   0.990       .  S
O1004      H1068   0.990       .  S
O1005      C1025   1.293       .  A
O1006      C1027   1.278       .  A
O1007     Zr1017   2.402       .  S
O1007      C1026   1.272       .  A
O1008     Zr1016   2.485       .  S
O1008      C1027   1.294       .  A
O1009      C1026   1.281       .  A
O1010     Zr1018   2.424       .  S
O1010      C1025   1.282       .  A
O1011     Zr1016   2.408       .  S
O1011     Zr1018   2.387       .  S
O1012     Zr1017   2.391   1_556  S
O1012     Zr1018   2.351       .  S
O1012      H1047   0.965       .  S
O1013     Zr1016   2.397       .  S
O1013     Zr1033   2.388   1_556  S
O1013      H1050   0.964       .  S
O1014     Zr1017   2.389       .  S
O1014     Zr1033   2.411       .  S
Zr1015     O1040   2.445       .  S
Zr1015     O1034   2.435       .  S
Zr1015     O1042   2.435       .  S
Zr1015     O1030   2.427   1_554  S
Zr1015     O1021   2.402       .  S
Zr1015     O1022   2.401   1_554  S
Zr1015     O1023   2.386       .  S
Zr1015     O1024   2.375       .  S
Zr1016     O1035   2.435       .  S
Zr1016     O1028   2.433       .  S
Zr1016     O1029   2.468       .  S
Zr1016     O1022   2.412       .  S
Zr1016     O1023   2.401   1_556  S
Zr1017     O1019   2.434       .  S
Zr1017     O1041   2.441       .  S
Zr1017     O1043   2.413       .  S
Zr1017     O1021   2.385       .  S
Zr1017     O1024   2.377       .  S
Zr1018     O1044   2.435       .  S
Zr1018     O1045   2.438       .  S
Zr1018     O1020   2.439       .  S
Zr1018     O1021   2.405   1_556  S
Zr1018     O1022   2.359       .  S
O1019      H1056   0.990       .  S
O1020      H1051   0.990       .  S
O1020      H1065   0.990       .  S
O1022      H1048   0.962       .  S
O1023     Zr1033   2.386       .  S
O1024     Zr1033   2.366       .  S
O1024      H1049   0.966       .  S
C1025      C1397   1.502       .  S
C1026      C1365   1.444       .  S
C1027      C1377   1.474       .  S
O1028      H1064   0.990       .  S
C1031      C1370   1.471   1_455  S
O1032     Zr1033   2.441       .  S
O1032      H1061   0.990       .  S
Zr1033     O1036   2.437       .  S
Zr1033     O1037   2.440       .  S
Zr1033     O1038   2.452       .  S
O1034      C1039   1.286       .  A
O1035      H1052   0.990       .  S
O1035      H1067   0.990       .  S
O1036      H1053   0.990       .  S
O1037      H1057   0.990       .  S
O1037      H1066   0.989       .  S
O1038      C1039   1.286       .  A
O1040      H1059   0.990       .  S
O1040      H1063   0.989       .  S
O1041      H1055   0.990       .  S
O1041      H1062   0.989       .  S
O1042      C1046   1.284       .  A
O1043      C1046   1.281       .  A
O1044      H1054   0.990       .  S
O1045      H1058   0.990       .  S
C1046      C1374   1.468       .  S
Zr1069     O1070   2.443       .  S
Zr1069     O1071   2.438       .  S
Zr1069     O1072   2.422       .  S
Zr1069     O1075   2.398       .  S
Zr1069     O1077   2.381       .  S
Zr1069     O1078   2.371       .  S
Zr1069     O1079   2.403       .  S
Zr1069     O1080   2.402       .  S
O1070      H1126   0.990       .  S
O1070      H1134   0.990       .  S
O1071      C1091   1.285       .  A
O1072      C1093   1.281       .  A
O1073     Zr1083   2.401       .  S
O1073      C1092   1.279       .  A
O1074     Zr1082   2.482       .  S
O1074      C1093   1.293       .  A
O1075      C1092   1.277       .  A
O1076     Zr1084   2.451       .  S
O1076      C1091   1.286       .  A
O1077     Zr1082   2.411       .  S
O1077     Zr1084   2.392       .  S
O1078     Zr1083   2.378       .  S
O1078     Zr1084   2.358       .  S
O1078      H1113   0.966       .  S
O1079     Zr1082   2.408       .  S
O1079     Zr1099   2.362       .  S
O1079      H1116   0.963       .  S
O1080     Zr1083   2.385       .  S
O1080     Zr1099   2.401       .  S
Zr1081     O1106   2.447       .  S
Zr1081     O1100   2.486       .  S
Zr1081     O1108   2.404       .  S
Zr1081     O1096   2.384       .  S
Zr1081     O1087   2.409       .  S
Zr1081     O1088   2.415       .  S
Zr1081     O1089   2.382       .  S
Zr1081     O1090   2.369       .  S
Zr1082     O1101   2.435       .  S
Zr1082     O1094   2.435       .  S
Zr1082     O1095   2.482       .  S
Zr1082     O1088   2.403       .  S
Zr1082     O1089   2.405       .  S
Zr1083     O1085   2.436       .  S
Zr1083     O1107   2.436       .  S
Zr1083     O1109   2.389       .  S
Zr1083     O1087   2.387       .  S
Zr1083     O1090   2.384       .  S
Zr1084     O1110   2.436       .  S
Zr1084     O1111   2.436       .  S
Zr1084     O1086   2.436       .  S
Zr1084     O1087   2.415       .  S
Zr1084     O1088   2.391       .  S
O1085      H1122   0.990       .  S
O1086      H1117   0.990       .  S
O1086      H1131   0.990       .  S
O1088      H1114   0.964       .  S
O1089     Zr1099   2.383       .  S
O1090     Zr1099   2.350       .  S
O1090      H1115   0.965       .  S
C1091      C1350   1.492       .  S
C1092      C1353   1.444       .  S
C1093      C1386   1.474   1_545  S
O1094      H1130   0.990       .  S
O1095      C1097   1.294       .  A
O1096      C1097   1.277       .  A
C1097      C1378   1.471       .  S
O1098     Zr1099   2.440       .  S
O1098      H1127   0.990       .  S
Zr1099     O1102   2.437       .  S
Zr1099     O1103   2.441       .  S
Zr1099     O1104   2.423       .  S
O1100      C1105   1.292       .  A
O1101      H1118   0.990       .  S
O1101      H1133   0.990       .  S
O1102      H1119   0.990       .  S
O1103      H1123   0.990       .  S
O1103      H1132   0.989       .  S
O1104      C1105   1.282       .  A
C1105      C1358   1.493       .  S
O1106      H1125   0.990       .  S
O1106      H1129   0.990       .  S
O1107      H1121   0.990       .  S
O1107      H1128   0.990       .  S
O1108      C1112   1.278       .  A
O1109      C1112   1.278       .  A
O1110      H1120   0.990       .  S
O1111      H1124   0.990       .  S
C1112      C1390   1.441       .  S
Zr1135     O1136   2.445       .  S
Zr1135     O1137   2.436       .  S
Zr1135     O1138   2.420       .  S
Zr1135     O1141   2.414       .  S
Zr1135     O1143   2.383       .  S
Zr1135     O1144   2.381       .  S
Zr1135     O1145   2.412       .  S
Zr1135     O1146   2.390       .  S
O1136      H1192   0.990       .  S
O1136      H1200   0.991       .  S
O1137      C1157   1.282       .  A
O1138      C1159   1.280       .  A
O1139     Zr1149   2.406       .  S
O1139      C1158   1.278       .  A
O1140     Zr1148   2.471       .  S
O1140      C1159   1.289       .  A
O1141      C1158   1.283       .  A
O1142     Zr1150   2.462       .  S
O1142      C1157   1.288       .  A
O1143     Zr1148   2.414       .  S
O1143     Zr1150   2.386       .  S
O1144     Zr1149   2.400       .  S
O1144     Zr1150   2.375       .  S
O1144      H1179   0.966       .  S
O1145     Zr1148   2.408       .  S
O1145     Zr1165   2.365       .  S
O1145      H1182   0.964       .  S
O1146     Zr1149   2.389       .  S
O1146     Zr1165   2.369       .  S
Zr1147     O1172   2.441       .  S
Zr1147     O1166   2.460       .  S
Zr1147     O1174   2.419       .  S
Zr1147     O1162   2.391       .  S
Zr1147     O1153   2.401       .  S
Zr1147     O1154   2.413       .  S
Zr1147     O1155   2.376       .  S
Zr1147     O1156   2.370       .  S
Zr1148     O1167   2.437       .  S
Zr1148     O1160   2.435       .  S
Zr1148     O1161   2.488       .  S
Zr1148     O1154   2.401       .  S
Zr1148     O1155   2.390       .  S
Zr1149     O1151   2.436       .  S
Zr1149     O1173   2.436       .  S
Zr1149     O1175   2.431       .  S
Zr1149     O1153   2.387       .  S
Zr1149     O1156   2.378       .  S
Zr1150     O1176   2.436       .  S
Zr1150     O1177   2.436       .  S
Zr1150     O1152   2.436       .  S
Zr1150     O1153   2.413       .  S
Zr1150     O1154   2.418       .  S
O1151      H1188   0.990       .  S
O1152      H1183   0.990       .  S
O1152      H1197   0.990       .  S
O1154      H1180   0.966       .  S
O1155     Zr1165   2.376       .  S
O1156     Zr1165   2.375       .  S
O1156      H1181   0.966       .  S
C1157      C1381   1.494       .  S
C1158      C1354   1.456       .  S
C1159      C1345   1.473       .  S
O1160      H1196   0.990       .  S
O1161      C1163   1.294       .  A
O1162      C1163   1.278       .  A
C1163      C1362   1.490       .  S
O1164     Zr1165   2.440       .  S
O1164      H1193   0.990       .  S
Zr1165     O1168   2.437       .  S
Zr1165     O1169   2.439       .  S
Zr1165     O1170   2.380       .  S
O1166      C1171   1.288       .  A
O1167      H1184   0.990       .  S
O1167      H1199   0.990       .  S
O1168      H1185   0.990       .  S
O1169      H1189   0.990       .  S
O1169      H1198   0.990       .  S
O1170      C1171   1.276       .  A
C1171      C1337   1.480       .  S
O1172      H1191   0.990   1_655  S
O1172      H1195   0.990       .  S
O1173      H1187   0.990       .  S
O1173      H1194   0.990       .  S
O1174      C1178   1.281       .  A
O1175      C1178   1.283       .  A
O1176      H1186   0.990       .  S
O1177      H1190   0.990       .  S
C1178      C1342   1.464       .  S
Zr1201     O1202   2.443       .  S
Zr1201     O1203   2.435       .  S
Zr1201     O1204   2.413       .  S
Zr1201     O1207   2.391       .  S
Zr1201     O1209   2.378       .  S
Zr1201     O1210   2.373       .  S
Zr1201     O1211   2.401       .  S
Zr1201     O1212   2.399       .  S
O1202      H1258   0.990       .  S
O1202      H1266   0.990       .  S
O1203      C1223   1.284       .  A
O1204      C1225   1.280       .  A
O1205     Zr1215   2.422       .  S
O1205      C1224   1.283       .  A
O1206     Zr1214   2.468       .  S
O1206      C1225   1.289       .  A
O1207      C1224   1.276       .  A
O1208     Zr1216   2.455       .  S
O1208      C1223   1.287       .  A
O1209     Zr1214   2.409       .  S
O1209     Zr1216   2.387       .  S
O1210     Zr1215   2.390       .  S
O1210     Zr1216   2.367       .  S
O1210      H1245   0.966       .  S
O1211     Zr1214   2.406       .  S
O1211     Zr1231   2.371       .  S
O1211      H1248   0.964       .  S
O1212     Zr1215   2.390       .  S
O1212     Zr1231   2.387       .  S
Zr1213     O1238   2.442       .  S
Zr1213     O1232   2.444       .  S
Zr1213     O1240   2.418       .  S
Zr1213     O1228   2.396       .  S
Zr1213     O1219   2.397       .  S
Zr1213     O1220   2.407       .  S
Zr1213     O1221   2.377       .  S
Zr1213     O1222   2.374       .  S
Zr1214     O1233   2.437       .  S
Zr1214     O1226   2.435       .  S
Zr1214     O1227   2.476       .  S
Zr1214     O1220   2.401       .  S
Zr1214     O1221   2.392       .  S
Zr1215     O1217   2.436       .  S
Zr1215     O1239   2.435       .  S
Zr1215     O1241   2.435       .  S
Zr1215     O1219   2.395       .  S
Zr1215     O1222   2.377       .  S
Zr1216     O1242   2.435       .  S
Zr1216     O1243   2.435       .  S
Zr1216     O1218   2.436       .  S
Zr1216     O1219   2.409       .  S
Zr1216     O1220   2.409       .  S
O1217      H1254   0.990       .  S
O1218      H1249   0.990       .  S
O1218      H1263   0.990       .  S
O1220      H1246   0.966       .  S
O1221     Zr1231   2.376       .  S
O1222     Zr1231   2.369       .  S
O1222      H1247   0.966       .  S
C1223      C1349   1.489       .  S
C1224      C1401   1.447       .  S
C1225      C1814   1.468       .  S
O1226      H1262   0.990       .  S
O1227      C1229   1.291       .  A
O1228      C1229   1.279       .  A
C1229      C1333   1.485       .  S
O1230     Zr1231   2.440       .  S
O1230      H1259   0.990       .  S
Zr1231     O1234   2.437       .  S
Zr1231     O1235   2.439       .  S
Zr1231     O1236   2.401       .  S
O1232      C1237   1.285       .  A
O1233      H1250   0.990       .  S
O1233      H1265   0.990       .  S
O1234      H1251   0.990       .  S
O1235      H1255   0.990       .  S
O1235      H1264   0.990       .  S
O1236      C1237   1.280       .  A
C1237      C1373   1.479       .  S
O1238      H1257   0.990       .  S
O1238      H1261   0.990       .  S
O1239      H1253   0.990       .  S
O1239      H1260   0.990       .  S
O1240      C1244   1.281       .  A
O1241      C1244   1.285       .  A
O1242      H1252   0.990       .  S
O1243      H1256   0.990       .  S
C1244      C1341   1.465       .  S
Zr1267     O1268   2.440       .  S
Zr1267     O1269   2.427       .  S
Zr1267     O1270   2.428   1_554  S
Zr1267     O1273   2.428       .  S
Zr1267     O1275   2.386       .  S
Zr1267     O1276   2.375       .  S
Zr1267     O1277   2.404   1_554  S
Zr1267     O1278   2.402       .  S
O1268      H1324   0.989       .  S
O1268      H1332   0.990       .  S
O1269      C1289   1.283       .  A
O1271     Zr1281   2.417       .  S
O1271      C1290   1.282       .  A
O1272     Zr1280   2.480       .  S
O1273      C1290   1.282       .  A
O1274     Zr1282   2.445       .  S
O1274      C1289   1.284       .  A
O1275     Zr1280   2.407   1_554  S
O1275     Zr1282   2.392       .  S
O1276     Zr1281   2.382       .  S
O1276     Zr1282   2.364       .  S
O1276      H1311   0.966       .  S
O1277     Zr1280   2.411       .  S
O1277     Zr1297   2.343       .  S
O1277      H1314   0.961       .  S
O1278     Zr1281   2.385       .  S
O1278     Zr1297   2.402   1_554  S
Zr1279     O1304   2.449       .  S
Zr1279     O1298   2.498       .  S
Zr1279     O1306   2.422       .  S
Zr1279     O1294   2.403       .  S
Zr1279     O1285   2.417   1_556  S
Zr1279     O1286   2.420       .  S
Zr1279     O1287   2.382       .  S
Zr1279     O1288   2.374       .  S
Zr1280     O1299   2.435       .  S
Zr1280     O1292   2.435       .  S
Zr1280     O1293   2.483       .  S
Zr1280     O1286   2.401       .  S
Zr1280     O1287   2.408       .  S
Zr1281     O1283   2.436       .  S
Zr1281     O1305   2.436       .  S
Zr1281     O1307   2.401       .  S
Zr1281     O1285   2.388       .  S
Zr1281     O1288   2.390   1_554  S
Zr1282     O1308   2.436       .  S
Zr1282     O1309   2.437       .  S
Zr1282     O1284   2.436       .  S
Zr1282     O1285   2.416       .  S
Zr1282     O1286   2.386   1_554  S
O1283      H1320   0.990       .  S
O1284      H1315   0.990       .  S
O1284      H1329   0.990       .  S
O1286      H1312   0.964       .  S
O1287     Zr1297   2.388       .  S
O1288     Zr1297   2.341       .  S
O1288      H1313   0.964       .  S
C1289      C1334   1.480   1_655  S
C1290      C1338   1.467       .  S
O1292      H1328   0.990   1_655  S
O1293      C1295   1.294       .  A
O1294      C1295   1.280       .  A
C1295      C1394   1.476       .  S
O1296     Zr1297   2.439       .  S
O1296      H1325   0.990       .  S
Zr1297     O1300   2.438       .  S
Zr1297     O1301   2.441       .  S
Zr1297     O1302   2.407       .  S
O1298      C1303   1.295       .  A
O1299      H1316   0.990       .  S
O1299      H1331   0.990       .  S
O1300      H1317   0.990       .  S
O1301      H1321   0.990       .  S
O1301      H1330   0.989       .  S
O1302      C1303   1.280       .  A
C1303      C1357   1.513       .  S
O1304      H1323   0.990       .  S
O1304      H1327   0.990       .  S
O1305      H1319   0.990       .  S
O1305      H1326   0.990       .  S
O1306      C1310   1.282   1_556  A
O1307      C1310   1.280       .  A
O1308      H1318   0.990       .  S
O1309      H1322   0.990       .  S
C1310      C1366   1.448       .  S
C1333      H1335   1.086       .  S
C1334      H1336   1.089       .  S
C1337      H1339   1.086       .  S
C1337      C1338   1.351       .  D
C1338      H1340   1.088       .  S
C1341      H1343   1.088       .  S
C1342      H1344   1.087   1_655  S
C1345      H1347   1.087   1_545  S
C1345      C1346   1.352       .  D
C1346      C1693   1.469   1_545  S
C1346      H1816   1.087       .  S
H1348      C1814   1.087       .  S
C1349      H1351   1.087       .  S
C1349      C1818   1.351       .  D
C1350      H1352   1.086       .  S
C1350      C1817   1.351       .  D
C1353      H1355   1.087       .  S
C1353      C1354   1.336       .  D
C1354      H1356   1.088       .  S
C1357      H1359   1.086       .  S
C1357      C1358   1.362       .  D
C1358      H1360   1.086       .  S
C1361      H1363   1.088       .  S
C1361      C1362   1.354       .  D
C1362      H1364   1.086       .  S
C1365      H1367   1.086       .  S
C1365      C1366   1.342       .  D
C1366      H1368   1.088       .  S
C1369      H1371   1.087       .  S
C1369      C1370   1.357   1_455  D
C1373      H1375   1.086       .  S
C1373      C1374   1.346       .  D
C1374      H1376   1.088       .  S
C1377      H1379   1.087       .  S
C1377      C1378   1.357       .  D
C1378      H1380   1.086       .  S
C1381      H1383   1.087       .  S
C1381      C1850   1.349       .  D
C1382      H1384   1.087       .  S
C1382      C1849   1.349       .  D
C1385      C1429   1.483   1_545  S
C1385      H1387   1.086       .  S
C1385      C1386   1.358   1_545  D
C1386      H1388   1.087       .  S
C1389      H1391   1.087       .  S
C1389      C1390   1.339       .  D
C1390      H1392   1.088       .  S
C1393      H1395   1.086       .  S
C1393      C1394   1.359       .  D
C1394      H1396   1.087       .  S
C1397      H1399   1.086       .  S
C1397      C1398   1.356       .  D
C1398      H1400   1.086       .  S
C1401      H1403   1.087       .  S
C1401      C1402   1.335       .  D
C1402      H1404   1.088       .  S
Zr1405     O1406   2.444       .  S
Zr1405     O1407   2.470       .  S
Zr1405     O1408   2.432       .  S
Zr1405     O1411   2.426       .  S
Zr1405     O1413   2.385       .  S
Zr1405     O1414   2.376       .  S
Zr1405     O1415   2.423       .  S
Zr1405     O1416   2.399       .  S
O1406      H1462   0.990       .  S
O1406      H1470   0.991       .  S
O1407      C1427   1.289       .  A
O1408      C1429   1.283       .  A
O1409     Zr1419   2.400       .  S
O1409      C1428   1.277       .  A
O1410     Zr1418   2.489       .  S
O1410      C1429   1.294       .  A
O1411      C1428   1.285       .  A
O1412     Zr1420   2.428       .  S
O1412      C1427   1.281       .  A
O1413     Zr1418   2.415       .  S
O1413     Zr1420   2.392       .  S
O1414     Zr1419   2.391       .  S
O1414     Zr1420   2.373       .  S
O1414      H1449   0.966       .  S
O1415     Zr1418   2.406       .  S
O1415     Zr1435   2.367       .  S
O1415      H1452   0.961       .  S
O1416     Zr1419   2.385       .  S
O1416     Zr1435   2.397       .  S
Zr1417     O1442   2.448       .  S
Zr1417     O1436   2.482       .  S
Zr1417     O1444   2.400       .  S
Zr1417     O1432   2.372       .  S
Zr1417     O1423   2.406       .  S
Zr1417     O1424   2.417       .  S
Zr1417     O1425   2.376       .  S
Zr1417     O1426   2.379       .  S
Zr1418     O1437   2.435       .  S
Zr1418     O1430   2.435       .  S
Zr1418     O1431   2.497       .  S
Zr1418     O1424   2.400       .  S
Zr1418     O1425   2.405       .  S
Zr1419     O1421   2.437       .  S
Zr1419     O1443   2.438       .  S
Zr1419     O1445   2.398       .  S
Zr1419     O1423   2.385       .  S
Zr1419     O1426   2.394       .  S
Zr1420     O1446   2.436       .  S
Zr1420     O1447   2.436       .  S
Zr1420     O1422   2.436       .  S
Zr1420     O1423   2.399       .  S
Zr1420     O1424   2.389       .  S
O1421      H1458   0.990       .  S
O1422      H1453   0.990       .  S
O1422      H1467   0.990       .  S
O1424      H1450   0.964       .  S
O1425     Zr1435   2.382       .  S
O1426     Zr1435   2.357       .  S
O1426      H1451   0.965       .  S
C1427      C1850   1.496   1_565  S
C1428      C1870   1.462       .  S
O1430      H1466   0.990   1_565  S
O1431      C1433   1.297       .  A
O1432      C1433   1.275       .  A
C1433      C1861   1.475       .  S
O1434     Zr1435   2.440       .  S
O1434      H1463   0.990       .  S
Zr1435     O1438   2.438       .  S
Zr1435     O1439   2.441       .  S
Zr1435     O1440   2.426       .  S
O1436      C1441   1.292       .  A
O1437      H1454   0.990       .  S
O1437      H1469   0.990       .  S
O1438      H1455   0.990       .  S
O1439      H1459   0.990       .  S
O1439      H1468   0.989       .  S
O1440      C1441   1.281       .  A
C1441      C1866   1.490       .  S
O1442      H1461   0.990       .  S
O1442      H1465   0.990       .  S
O1443      H1457   0.990       .  S
O1443      H1464   0.990       .  S
O1444      C1448   1.278       .  A
O1445      C1448   1.269       .  A
O1446      H1456   0.990       .  S
O1447      H1460   0.990       .  S
C1448      C1857   1.439       .  S
Zr1471     O1472   2.441       .  S
Zr1471     O1473   2.485       .  S
Zr1471     O1474   2.396       .  S
Zr1471     O1477   2.413   1_556  S
Zr1471     O1479   2.378       .  S
Zr1471     O1480   2.381   1_556  S
Zr1471     O1481   2.421       .  S
Zr1471     O1482   2.416   1_556  S
O1472      H1528   0.991       .  S
O1472      H1536   0.990       .  S
O1473      C1493   1.293       .  A
O1474      C1495   1.278       .  A
O1475     Zr1485   2.402       .  S
O1475      C1494   1.272       .  A
O1476     Zr1484   2.485       .  S
O1476      C1495   1.294       .  A
O1477      C1494   1.281       .  A
O1478     Zr1486   2.424       .  S
O1478      C1493   1.282       .  A
O1479     Zr1484   2.408       .  S
O1479     Zr1486   2.388       .  S
O1480     Zr1485   2.395       .  S
O1480     Zr1486   2.348   1_554  S
O1480      H1515   0.965   1_554  S
O1481     Zr1484   2.397       .  S
O1481     Zr1501   2.388   1_556  S
O1481      H1518   0.964       .  S
O1482     Zr1485   2.389       .  S
O1482     Zr1501   2.411       .  S
Zr1483     O1508   2.445       .  S
Zr1483     O1502   2.435       .  S
Zr1483     O1510   2.435       .  S
Zr1483     O1498   2.427   1_554  S
Zr1483     O1489   2.402       .  S
Zr1483     O1490   2.401   1_554  S
Zr1483     O1491   2.386       .  S
Zr1483     O1492   2.375       .  S
Zr1484     O1503   2.435       .  S
Zr1484     O1496   2.433       .  S
Zr1484     O1497   2.469       .  S
Zr1484     O1490   2.412       .  S
Zr1484     O1491   2.401   1_556  S
Zr1485     O1487   2.435       .  S
Zr1485     O1509   2.440       .  S
Zr1485     O1511   2.414       .  S
Zr1485     O1489   2.384       .  S
Zr1485     O1492   2.378       .  S
Zr1486     O1512   2.435       .  S
Zr1486     O1513   2.436       .  S
Zr1486     O1488   2.437       .  S
Zr1486     O1489   2.406   1_556  S
Zr1486     O1490   2.358       .  S
O1487      H1524   0.990       .  S
O1488      H1519   0.990       .  S
O1488      H1533   0.990       .  S
O1490      H1516   0.962       .  S
O1491     Zr1501   2.386       .  S
O1492     Zr1501   2.366       .  S
O1492      H1517   0.966       .  S
C1493      C1865   1.502       .  S
C1494      C1833   1.445       .  S
C1495      C1845   1.475       .  S
O1496      H1532   0.990       .  S
C1499      C1838   1.471   1_455  S
O1500     Zr1501   2.441       .  S
O1500      H1529   0.990       .  S
Zr1501     O1504   2.437       .  S
Zr1501     O1505   2.440       .  S
Zr1501     O1506   2.452       .  S
O1502      C1507   1.286       .  A
O1503      H1520   0.990       .  S
O1503      H1535   0.990       .  S
O1504      H1521   0.990       .  S
O1505      H1525   0.990       .  S
O1505      H1534   0.989       .  S
O1506      C1507   1.286       .  A
O1508      H1527   0.990       .  S
O1508      H1531   0.989       .  S
O1509      H1523   0.990       .  S
O1509      H1530   0.989       .  S
O1510      C1514   1.284       .  A
O1511      C1514   1.281       .  A
O1512      H1522   0.990       .  S
O1513      H1526   0.990       .  S
C1514      C1842   1.468       .  S
Zr1537     O1538   2.443       .  S
Zr1537     O1539   2.437       .  S
Zr1537     O1540   2.422       .  S
Zr1537     O1543   2.397       .  S
Zr1537     O1545   2.380       .  S
Zr1537     O1546   2.371       .  S
Zr1537     O1547   2.402       .  S
Zr1537     O1548   2.402       .  S
O1538      H1594   0.990       .  S
O1538      H1602   0.990       .  S
O1539      C1559   1.285       .  A
O1540      C1561   1.281       .  A
O1541     Zr1551   2.400       .  S
O1541      C1560   1.279       .  A
O1542     Zr1550   2.481       .  S
O1542      C1561   1.293       .  A
O1543      C1560   1.276       .  A
O1544     Zr1552   2.452       .  S
O1544      C1559   1.286       .  A
O1545     Zr1550   2.411       .  S
O1545     Zr1552   2.392       .  S
O1546     Zr1551   2.378       .  S
O1546     Zr1552   2.358       .  S
O1546      H1581   0.966       .  S
O1547     Zr1550   2.408       .  S
O1547     Zr1567   2.361       .  S
O1547      H1584   0.963       .  S
O1548     Zr1551   2.385       .  S
O1548     Zr1567   2.400       .  S
Zr1549     O1574   2.448       .  S
Zr1549     O1568   2.487       .  S
Zr1549     O1576   2.404       .  S
Zr1549     O1564   2.384       .  S
Zr1549     O1555   2.409       .  S
Zr1549     O1556   2.415       .  S
Zr1549     O1557   2.382       .  S
Zr1549     O1558   2.370       .  S
Zr1550     O1569   2.435       .  S
Zr1550     O1562   2.435       .  S
Zr1550     O1563   2.482       .  S
Zr1550     O1556   2.403       .  S
Zr1550     O1557   2.405       .  S
Zr1551     O1553   2.436       .  S
Zr1551     O1575   2.436       .  S
Zr1551     O1577   2.390       .  S
Zr1551     O1555   2.387       .  S
Zr1551     O1558   2.384       .  S
Zr1552     O1578   2.436       .  S
Zr1552     O1579   2.436       .  S
Zr1552     O1554   2.436       .  S
Zr1552     O1555   2.415       .  S
Zr1552     O1556   2.391       .  S
O1553      H1590   0.990       .  S
O1554      H1585   0.990       .  S
O1554      H1599   0.990       .  S
O1556      H1582   0.964       .  S
O1557     Zr1567   2.383       .  S
O1558     Zr1567   2.350       .  S
O1558      H1583   0.965       .  S
C1559      C1818   1.492       .  S
C1560      C1821   1.444       .  S
C1561      C1854   1.474       .  S
O1562      H1598   0.990       .  S
O1563      C1565   1.294       .  A
O1564      C1565   1.277       .  A
C1565      C1846   1.471       .  S
O1566     Zr1567   2.440       .  S
O1566      H1595   0.990       .  S
Zr1567     O1570   2.437       .  S
Zr1567     O1571   2.441       .  S
Zr1567     O1572   2.421       .  S
O1568      C1573   1.292       .  A
O1569      H1586   0.990       .  S
O1569      H1601   0.990       .  S
O1570      H1587   0.990       .  S
O1571      H1591   0.990       .  S
O1571      H1600   0.989       .  S
O1572      C1573   1.282       .  A
C1573      C1826   1.493       .  S
O1574      H1593   0.990       .  S
O1574      H1597   0.990       .  S
O1575      H1589   0.990       .  S
O1575      H1596   0.990       .  S
O1576      C1580   1.278       .  A
O1577      C1580   1.278       .  A
O1578      H1588   0.990       .  S
O1579      H1592   0.990       .  S
C1580      C1858   1.441       .  S
Zr1603     O1604   2.445       .  S
Zr1603     O1605   2.436       .  S
Zr1603     O1606   2.420       .  S
Zr1603     O1609   2.413       .  S
Zr1603     O1611   2.383       .  S
Zr1603     O1612   2.381       .  S
Zr1603     O1613   2.411       .  S
Zr1603     O1614   2.391       .  S
O1604      H1660   0.990       .  S
O1604      H1668   0.991       .  S
O1605      C1625   1.282       .  A
O1606      C1627   1.280       .  A
O1607     Zr1617   2.406       .  S
O1607      C1626   1.278       .  A
O1608     Zr1616   2.471       .  S
O1608      C1627   1.289       .  A
O1609      C1626   1.282       .  A
O1610     Zr1618   2.463       .  S
O1610      C1625   1.288       .  A
O1611     Zr1616   2.414       .  S
O1611     Zr1618   2.386       .  S
O1612     Zr1617   2.400       .  S
O1612     Zr1618   2.375       .  S
O1612      H1647   0.966       .  S
O1613     Zr1616   2.408       .  S
O1613     Zr1633   2.365       .  S
O1613      H1650   0.964       .  S
O1614     Zr1617   2.389       .  S
O1614     Zr1633   2.369       .  S
Zr1615     O1640   2.442       .  S
Zr1615     O1634   2.460       .  S
Zr1615     O1642   2.419       .  S
Zr1615     O1630   2.390       .  S
Zr1615     O1621   2.401       .  S
Zr1615     O1622   2.413       .  S
Zr1615     O1623   2.376       .  S
Zr1615     O1624   2.370       .  S
Zr1616     O1635   2.437       .  S
Zr1616     O1628   2.435       .  S
Zr1616     O1629   2.488       .  S
Zr1616     O1622   2.401       .  S
Zr1616     O1623   2.390       .  S
Zr1617     O1619   2.436       .  S
Zr1617     O1641   2.436       .  S
Zr1617     O1643   2.432       .  S
Zr1617     O1621   2.387       .  S
Zr1617     O1624   2.377       .  S
Zr1618     O1644   2.436       .  S
Zr1618     O1645   2.436       .  S
Zr1618     O1620   2.436       .  S
Zr1618     O1621   2.413       .  S
Zr1618     O1622   2.418       .  S
O1619      H1656   0.990       .  S
O1620      H1651   0.990       .  S
O1620      H1665   0.990       .  S
O1622      H1648   0.966       .  S
O1623     Zr1633   2.376       .  S
O1624     Zr1633   2.374       .  S
O1624      H1649   0.966       .  S
C1625      C1849   1.495       .  S
C1626      C1822   1.456       .  S
C1627      C1813   1.472       .  S
O1628      H1664   0.990       .  S
O1629      C1631   1.294       .  A
O1630      C1631   1.278       .  A
C1631      C1830   1.490       .  S
O1632     Zr1633   2.440       .  S
O1632      H1661   0.990       .  S
Zr1633     O1636   2.437       .  S
Zr1633     O1637   2.439       .  S
Zr1633     O1638   2.379       .  S
O1634      C1639   1.288       .  A
O1635      H1652   0.990       .  S
O1635      H1667   0.990       .  S
O1636      H1653   0.990       .  S
O1637      H1657   0.990       .  S
O1637      H1666   0.990       .  S
O1638      C1639   1.276       .  A
C1639      C1805   1.480       .  S
O1640      H1659   0.990   1_655  S
O1640      H1663   0.990       .  S
O1641      H1655   0.990       .  S
O1641      H1662   0.990       .  S
O1642      C1646   1.281       .  A
O1643      C1646   1.283       .  A
O1644      H1654   0.990       .  S
O1645      H1658   0.990       .  S
C1646      C1810   1.464       .  S
Zr1669     O1670   2.443       .  S
Zr1669     O1671   2.434       .  S
Zr1669     O1672   2.413       .  S
Zr1669     O1675   2.391       .  S
Zr1669     O1677   2.378       .  S
Zr1669     O1678   2.374       .  S
Zr1669     O1679   2.401       .  S
Zr1669     O1680   2.399       .  S
O1670      H1726   0.990       .  S
O1670      H1734   0.990       .  S
O1671      C1691   1.284       .  A
O1672      C1693   1.280       .  A
O1673     Zr1683   2.423       .  S
O1673      C1692   1.283       .  A
O1674     Zr1682   2.468       .  S
O1674      C1693   1.289       .  A
O1675      C1692   1.276       .  A
O1676     Zr1684   2.456       .  S
O1676      C1691   1.287       .  A
O1677     Zr1682   2.409       .  S
O1677     Zr1684   2.387       .  S
O1678     Zr1683   2.390       .  S
O1678     Zr1684   2.366       .  S
O1678      H1713   0.966       .  S
O1679     Zr1682   2.405       .  S
O1679     Zr1699   2.371       .  S
O1679      H1716   0.964       .  S
O1680     Zr1683   2.390       .  S
O1680     Zr1699   2.387       .  S
Zr1681     O1706   2.442       .  S
Zr1681     O1700   2.445       .  S
Zr1681     O1708   2.419       .  S
Zr1681     O1696   2.396       .  S
Zr1681     O1687   2.397       .  S
Zr1681     O1688   2.407       .  S
Zr1681     O1689   2.377       .  S
Zr1681     O1690   2.374       .  S
Zr1682     O1701   2.437       .  S
Zr1682     O1694   2.435       .  S
Zr1682     O1695   2.476       .  S
Zr1682     O1688   2.401       .  S
Zr1682     O1689   2.393       .  S
Zr1683     O1685   2.436       .  S
Zr1683     O1707   2.435       .  S
Zr1683     O1709   2.435       .  S
Zr1683     O1687   2.395       .  S
Zr1683     O1690   2.377       .  S
Zr1684     O1710   2.435       .  S
Zr1684     O1711   2.435       .  S
Zr1684     O1686   2.436       .  S
Zr1684     O1687   2.410       .  S
Zr1684     O1688   2.409       .  S
O1685      H1722   0.990       .  S
O1686      H1717   0.990       .  S
O1686      H1731   0.990       .  S
O1688      H1714   0.966       .  S
O1689     Zr1699   2.376       .  S
O1690     Zr1699   2.369       .  S
O1690      H1715   0.966       .  S
C1691      C1817   1.489   1_565  S
C1692      C1869   1.447       .  S
O1694      H1730   0.990   1_565  S
O1695      C1697   1.291       .  A
O1696      C1697   1.280       .  A
C1697      C1801   1.485       .  S
O1698     Zr1699   2.440       .  S
O1698      H1727   0.990       .  S
Zr1699     O1702   2.437       .  S
Zr1699     O1703   2.439       .  S
Zr1699     O1704   2.401       .  S
O1700      C1705   1.285       .  A
O1701      H1718   0.990       .  S
O1701      H1733   0.990       .  S
O1702      H1719   0.990       .  S
O1703      H1723   0.990       .  S
O1703      H1732   0.990       .  S
O1704      C1705   1.280       .  A
C1705      C1841   1.479       .  S
O1706      H1725   0.990       .  S
O1706      H1729   0.990       .  S
O1707      H1721   0.990       .  S
O1707      H1728   0.990       .  S
O1708      C1712   1.281       .  A
O1709      C1712   1.285       .  A
O1710      H1720   0.990       .  S
O1711      H1724   0.990       .  S
C1712      C1809   1.465       .  S
Zr1735     O1736   2.440       .  S
Zr1735     O1737   2.427       .  S
Zr1735     O1738   2.428   1_554  S
Zr1735     O1741   2.427       .  S
Zr1735     O1743   2.386       .  S
Zr1735     O1744   2.375       .  S
Zr1735     O1745   2.404   1_554  S
Zr1735     O1746   2.402       .  S
O1736      H1792   0.989       .  S
O1736      H1800   0.990       .  S
O1737      C1757   1.283       .  A
O1739     Zr1749   2.417       .  S
O1739      C1758   1.282       .  A
O1740     Zr1748   2.480       .  S
O1741      C1758   1.282       .  A
O1742     Zr1750   2.445       .  S
O1742      C1757   1.284       .  A
O1743     Zr1748   2.407   1_554  S
O1743     Zr1750   2.392       .  S
O1744     Zr1749   2.382       .  S
O1744     Zr1750   2.363       .  S
O1744      H1779   0.966       .  S
O1745     Zr1748   2.411       .  S
O1745     Zr1765   2.342       .  S
O1745      H1782   0.961       .  S
O1746     Zr1749   2.386       .  S
O1746     Zr1765   2.402   1_554  S
Zr1747     O1772   2.449       .  S
Zr1747     O1766   2.499       .  S
Zr1747     O1774   2.422       .  S
Zr1747     O1762   2.403       .  S
Zr1747     O1753   2.417   1_556  S
Zr1747     O1754   2.420       .  S
Zr1747     O1755   2.382       .  S
Zr1747     O1756   2.375       .  S
Zr1748     O1767   2.435       .  S
Zr1748     O1760   2.435       .  S
Zr1748     O1761   2.483       .  S
Zr1748     O1754   2.401       .  S
Zr1748     O1755   2.408       .  S
Zr1749     O1751   2.436       .  S
Zr1749     O1773   2.436       .  S
Zr1749     O1775   2.401       .  S
Zr1749     O1753   2.388       .  S
Zr1749     O1756   2.390   1_554  S
Zr1750     O1776   2.436       .  S
Zr1750     O1777   2.437       .  S
Zr1750     O1752   2.436       .  S
Zr1750     O1753   2.416       .  S
Zr1750     O1754   2.386   1_554  S
O1751      H1788   0.990       .  S
O1752      H1783   0.990       .  S
O1752      H1797   0.990       .  S
O1754      H1780   0.964       .  S
O1755     Zr1765   2.388       .  S
O1756     Zr1765   2.341       .  S
O1756      H1781   0.964       .  S
C1757      C1802   1.479   1_655  S
C1758      C1806   1.467       .  S
O1760      H1796   0.990   1_655  S
O1761      C1763   1.294       .  A
O1762      C1763   1.280       .  A
C1763      C1862   1.476       .  S
O1764     Zr1765   2.439       .  S
O1764      H1793   0.990       .  S
Zr1765     O1768   2.438       .  S
Zr1765     O1769   2.441       .  S
Zr1765     O1770   2.406       .  S
O1766      C1771   1.295       .  A
O1767      H1784   0.990       .  S
O1767      H1799   0.990       .  S
O1768      H1785   0.990       .  S
O1769      H1789   0.990       .  S
O1769      H1798   0.989       .  S
O1770      C1771   1.280       .  A
C1771      C1825   1.513       .  S
O1772      H1791   0.990       .  S
O1772      H1795   0.990       .  S
O1773      H1787   0.990       .  S
O1773      H1794   0.990       .  S
O1774      C1778   1.282   1_556  A
O1775      C1778   1.280       .  A
O1776      H1786   0.990       .  S
O1777      H1790   0.990       .  S
C1778      C1834   1.448       .  S
C1801      H1803   1.086       .  S
C1802      H1804   1.089       .  S
C1805      H1807   1.086       .  S
C1805      C1806   1.351       .  D
C1806      H1808   1.088       .  S
C1809      H1811   1.088       .  S
C1810      H1812   1.087   1_655  S
C1813      H1815   1.087       .  S
C1813      C1814   1.352       .  D
C1817      H1819   1.087       .  S
C1818      H1820   1.086       .  S
C1821      H1823   1.087       .  S
C1821      C1822   1.336       .  D
C1822      H1824   1.088       .  S
C1825      H1827   1.086       .  S
C1825      C1826   1.362       .  D
C1826      H1828   1.086       .  S
C1829      H1831   1.088       .  S
C1829      C1830   1.354       .  D
C1830      H1832   1.086       .  S
C1833      H1835   1.086       .  S
C1833      C1834   1.342       .  D
C1834      H1836   1.088       .  S
C1837      H1839   1.087       .  S
C1837      C1838   1.357   1_455  D
C1841      H1843   1.086       .  S
C1841      C1842   1.346       .  D
C1842      H1844   1.088       .  S
C1845      H1847   1.087       .  S
C1845      C1846   1.357       .  D
C1846      H1848   1.086       .  S
C1849      H1851   1.087       .  S
C1850      H1852   1.087       .  S
C1853      H1855   1.086       .  S
C1853      C1854   1.357       .  D
C1854      H1856   1.087       .  S
C1857      H1859   1.087       .  S
C1857      C1858   1.338       .  D
C1858      H1860   1.089       .  S
C1861      H1863   1.086       .  S
C1861      C1862   1.359       .  D
C1862      H1864   1.087       .  S
C1865      H1867   1.086       .  S
C1865      C1866   1.356       .  D
C1866      H1868   1.086       .  S
C1869      H1871   1.087       .  S
C1869      C1870   1.335       .  D
C1870      H1872   1.088       .  S
