geometry optimzed in LAMMPS
_audit_creation_date              2020-11-30 
_audit_creation_method            'lammps2cif' 
_symmetry_space_group_name_H-M    'P1' 
_symmetry_Int_Tables_number       1 
_symmetry_cell_setting            triclinic 
loop_ 
_symmetry_equiv_pos_as_xyz 
  x,y,z 
_cell_length_a                    43.44299121 
_cell_length_b                    43.50643161739051 
_cell_length_c                    65.22287286084625 
_cell_angle_alpha                 90.23819279918098 
_cell_angle_beta                  89.82982728976019 
_cell_angle_gamma                 120.01133161897995 
loop_ 
_atom_site_label 
_atom_site_type_symbol 
_atom_site_fract_x 
_atom_site_fract_y 
_atom_site_fract_z 
_atom_site_charge 
O1          O  0.46322267  0.43798632  0.25103444    -0.74300
O2          O  0.46177397  0.02440704  0.24858406    -0.74400
O3          O  0.46011425  0.47881213  0.22101408    -0.74400
O4          O  0.46685693  0.48489437  0.27955885    -0.74500
O5          O  0.01893334  0.00592170  0.28213275    -0.74400
O6          O  0.01728093  0.00327535  0.22346985    -0.74400
O7          O  0.01923491  0.04896346  0.25231479    -0.74300
O8          O  0.01746598  0.46071145  0.25029791    -0.74400
Ni9        Ni  0.46138081  0.48089149  0.25037344     1.25400
Ni10       Ni  0.02024499  0.00558263  0.25277760     1.25400
C11         C  0.98798535  0.43147204  0.25167891     0.87900
C12         C  0.99003802  0.04945524  0.25256051     0.87800
C13         C  0.48863924  0.49209591  0.21029944     0.87800
C14         C  0.98959658  0.99206229  0.29213609     0.88000
O15         O  0.01793362  0.21117678  0.24933751    -0.74300
O16         O  0.01702292  0.29870504  0.25140931    -0.74400
O17         O  0.01745927  0.25330889  0.27959752    -0.74400
O18         O  0.01788251  0.25662570  0.22108152    -0.74500
O19         O  0.45814705  0.23049451  0.21837399    -0.74400
O20         O  0.45618615  0.22660658  0.27708651    -0.74400
O21         O  0.45741394  0.27257712  0.24871538    -0.74300
O22         O  0.45701429  0.18461867  0.24665981    -0.74400
Ni23       Ni  0.01970880  0.25606617  0.25035475     1.25400
Ni24       Ni  0.45507510  0.22752944  0.24769182     1.25400
C25         C  0.98836590  0.18172929  0.24922779     0.87900
C26         C  0.98714598  0.29796696  0.25139377     0.87800
C27         C  0.98784466  0.23742394  0.28927356     0.87800
C28         C  0.98837990  0.24194456  0.21132041     0.88000
O29         O  0.23558146  0.03318277  0.24471000    -0.74300
O30         O  0.23549085  0.44347579  0.25068836    -0.74400
O31         O  0.23354066  0.48751470  0.27925203    -0.74400
O32         O  0.23556641  0.48644226  0.22084664    -0.74500
O33         O  0.29384055  0.01357105  0.21806730    -0.74400
O34         O  0.28916310  0.01611352  0.27670925    -0.74400
O35         O  0.29469080  0.47389955  0.25114795    -0.74300
O36         O  0.29462495  0.06008533  0.24605862    -0.74400
Ni37       Ni  0.23252405  0.48587651  0.25004162     1.25400
Ni38       Ni  0.29359385  0.01561730  0.24745862     1.25400
C39         C  0.26598017  0.06160458  0.24509871     0.87900
C40         C  0.26535767  0.44429645  0.25122945     0.87800
C41         C  0.26258882  0.50283007  0.28940243     0.87800
C42         C  0.26538334  0.50161169  0.21140044     0.88000
O43         O  0.29697035  0.22429864  0.24893106    -0.74300
O44         O  0.29845304  0.31291003  0.25177044    -0.74400
O45         O  0.29401002  0.26456572  0.27980683    -0.74400
O46         O  0.30112146  0.27229001  0.22103106    -0.74500
O47         O  0.24194242  0.24335015  0.21907579    -0.74400
O48         O  0.23503134  0.23615965  0.27733818    -0.74400
O49         O  0.23934203  0.28420412  0.24957716    -0.74300
O50         O  0.23795255  0.19594651  0.24678095    -0.74400
Ni51       Ni  0.29980834  0.26961822  0.25049066     1.25400
Ni52       Ni  0.23653036  0.23899382  0.24812576     1.25400
C53         C  0.26709496  0.19538836  0.24747958     0.87900
C54         C  0.26914441  0.31318587  0.25086543     0.87800
C55         C  0.26317438  0.24847531  0.28826096     0.87800
C56         C  0.27246520  0.25840184  0.21040476     0.88000
O57         O  0.45176131  0.48395284  0.41751692    -0.74300
O58         O  0.03963110  0.48589309  0.41499223    -0.74400
O59         O  0.49954451  0.48846670  0.44558197    -0.74400
O60         O  0.49399534  0.48346071  0.38719850    -0.74500
O61         O  0.01104738  0.03116735  0.38997256    -0.74400
O62         O  0.01144656  0.03325905  0.44869946    -0.74400
O63         O  0.05566136  0.03343227  0.41936529    -0.74300
O64         O  0.47429739  0.04416513  0.41486132    -0.74400
Ni65       Ni  0.49576903  0.48397235  0.41644705     1.25400
Ni66       Ni  0.01232026  0.03444660  0.41932654     1.25400
C67         C  0.44465988  0.01489984  0.41572482     0.87900
C68         C  0.05622510  0.00432151  0.41934352     0.87800
C69         C  0.99735831  0.00396146  0.45862157     0.87800
C70         C  0.99600344  0.00109817  0.38072982     0.88000
O71         O  0.46203487  0.26740297  0.41590293    -0.74300
O72         O  0.05038177  0.26749116  0.41603298    -0.74400
O73         O  0.00560389  0.26628631  0.38722422    -0.74400
O74         O  0.00749133  0.26862889  0.44572819    -0.74500
O75         O  0.47545621  0.20730855  0.44425820    -0.74400
O76         O  0.47457622  0.20820366  0.38537475    -0.74400
O77         O  0.02071495  0.20834700  0.41661926    -0.74300
O78         O  0.43174737  0.20835837  0.41550063    -0.74400
Ni79       Ni  0.00750031  0.26955509  0.41645199     1.25400
Ni80       Ni  0.47404931  0.20550179  0.41481922     1.25400
C81         C  0.43246203  0.23806463  0.41637720     0.87900
C82         C  0.05005083  0.23790028  0.41620894     0.87800
C83         C  0.99070972  0.23636597  0.37786720     0.87800
C84         C  0.99303869  0.23945772  0.45575971     0.88000
O85         O  0.20062584  0.48420900  0.41583381    -0.74300
O86         O  0.28834807  0.48399967  0.41851225    -0.74400
O87         O  0.24332623  0.48614662  0.44637363    -0.74400
O88         O  0.24533424  0.48183222  0.38803291    -0.74500
O89         O  0.26629422  0.04216294  0.38365967    -0.74400
O90         O  0.26426759  0.04195738  0.44259091    -0.74400
O91         O  0.31059464  0.04500378  0.41363940    -0.74300
O92         O  0.21988074  0.03943712  0.41281969    -0.74400
Ni93       Ni  0.24335161  0.48194346  0.41724937     1.25400
Ni94       Ni  0.26619775  0.04429539  0.41314341     1.25400
C95         C  0.19142228  0.00901697  0.41293245     0.87900
C96         C  0.31196830  0.01629774  0.41380570     0.87800
C97         C  0.25022993  0.01223517  0.45211298     0.87800
C98         C  0.25335635  0.01252022  0.37400392     0.88000
O99         O  0.18436948  0.21136341  0.41361497    -0.74300
O100        O  0.27257395  0.21265526  0.41765352    -0.74400
O101        O  0.22519945  0.21183039  0.44489546    -0.74400
O102        O  0.23200610  0.21201862  0.38622925    -0.74500
O103        O  0.26196312  0.27121535  0.38647431    -0.74400
O104        O  0.25387031  0.27095845  0.44489488    -0.74400
O105        O  0.30148881  0.27170144  0.41813829    -0.74300
O106        O  0.21353168  0.27050945  0.41330810    -0.74400
Ni107      Ni  0.22742059  0.20982989  0.41556797     1.25400
Ni108      Ni  0.25862241  0.27318074  0.41568589     1.25400
C109        C  0.18437943  0.24078631  0.41304936     0.87900
C110        C  0.30168493  0.24243420  0.41847906     0.87800
C111        C  0.23879952  0.24142711  0.45459325     0.87800
C112        C  0.24907041  0.24168888  0.37676732     0.88000
O113        O  0.46336897  0.43561651  0.07989180    -0.74300
O114        O  0.45474869  0.01943817  0.08368566    -0.74400
O115        O  0.46436038  0.48311328  0.05286164    -0.74400
O116        O  0.46046481  0.47504406  0.11132630    -0.74500
O117        O  0.01910037  0.00219050  0.11581153    -0.74400
O118        O  0.02085963  0.00551412  0.05718975    -0.74400
O119        O  0.02084113  0.04814287  0.08737930    -0.74300
O120        O  0.01076524  0.45473374  0.08176920    -0.74400
Ni121      Ni  0.46033835  0.47798271  0.08203059     1.25400
Ni122      Ni  0.02209348  0.00482323  0.08652843     1.25400
C123        C  0.49327193  0.43643719  0.07996281     0.87900
C124        C  0.48437372  0.04873875  0.08377001     0.87800
C125        C  0.49453798  0.49930066  0.04378410     0.87800
C126        C  0.48950256  0.48898738  0.12155983     0.88000
O127        O  0.01773911  0.29776114  0.08360038    -0.74300
O128        O  0.02208586  0.21212142  0.08460352    -0.74400
O129        O  0.02157757  0.25498181  0.05478371    -0.74400
O130        O  0.01855241  0.25523078  0.11333625    -0.74500
O131        O  0.46181921  0.23175963  0.10925741    -0.74400
O132        O  0.46858955  0.23207560  0.05071221    -0.74400
O133        O  0.46355524  0.18714040  0.08092831    -0.74300
O134        O  0.46657066  0.27633802  0.07902917    -0.74400
Ni135      Ni  0.02210165  0.25613799  0.08409268     1.25400
Ni136      Ni  0.46302281  0.23080448  0.07989182     1.25400
C137        C  0.98746624  0.29611933  0.08317031     0.87900
C138        C  0.99312375  0.18218529  0.08437680     0.87800
C139        C  0.99250443  0.23987021  0.04459779     0.87800
C140        C  0.98849798  0.23927154  0.12255300     0.88000
O141        O  0.24308425  0.04036600  0.07965051    -0.74300
O142        O  0.23903946  0.44986111  0.08267759    -0.74400
O143        O  0.23834818  0.49184917  0.11313136    -0.74400
O144        O  0.23661868  0.49424555  0.05457790    -0.74500
O145        O  0.30120127  0.02379051  0.05020451    -0.74400
O146        O  0.30158510  0.02497941  0.10885920    -0.74400
O147        O  0.29823680  0.48107245  0.08244839    -0.74300
O148        O  0.30225178  0.06924502  0.07942132    -0.74400
Ni149      Ni  0.23533602  0.49189649  0.08388707     1.25400
Ni150      Ni  0.30346455  0.02568131  0.07953165     1.25400
C151        C  0.27284570  0.06948738  0.07955410     0.87900
C152        C  0.26918050  0.45120584  0.08247366     0.87800
C153        C  0.26820789  0.50741053  0.12255998     0.87800
C154        C  0.26586526  0.50990005  0.04449994     0.88000
O155        O  0.24493104  0.24702772  0.11267939    -0.74300
O156        O  0.24131369  0.24492297  0.05414428    -0.74400
O157        O  0.24463703  0.20279518  0.08338495    -0.74400
O158        O  0.24162924  0.28914508  0.08323594    -0.74500
O159        O  0.30081295  0.32012505  0.08194228    -0.74400
O160        O  0.30380018  0.23362529  0.08246907    -0.74400
O161        O  0.30038999  0.27554896  0.05283128    -0.74300
O162        O  0.30413824  0.27856358  0.11161427    -0.74400
Ni163      Ni  0.24105467  0.24487523  0.08343683     1.25400
Ni164      Ni  0.30441874  0.27805371  0.08218034     1.25400
C165        C  0.27503446  0.26314071  0.12181693     0.87900
C166        C  0.27019455  0.26009770  0.04373892     0.87800
C167        C  0.27464330  0.20384789  0.08292462     0.87800
C168        C  0.27071725  0.31887932  0.08227569     0.88000
O169        O  0.44244196  0.48176829  0.91596745    -0.74300
O170        O  0.03091486  0.06696438  0.92146439    -0.74400
O171        O  0.47213934  0.02082317  0.88788714    -0.74400
O172        O  0.47273515  0.01556301  0.94636756    -0.74500
O173        O  0.00420850  0.48768442  0.94438277    -0.74400
O174        O  0.00252791  0.49221755  0.88601275    -0.74400
O175        O  0.06082749  0.03777892  0.92017575    -0.74300
O176        O  0.47209871  0.45243553  0.91435768    -0.74400
Ni177      Ni  0.47154911  0.01932200  0.91723442     1.25400
Ni178      Ni  0.00449579  0.48902309  0.91513075     1.25400
C179        C  0.44264032  0.45248957  0.91480103     0.87900
C180        C  0.06039549  0.06696918  0.92108107     0.87800
C181        C  0.98745448  0.50761555  0.87735300     0.87800
C182        C  0.98856681  0.50057085  0.95506757     0.88000
O183        O  0.06308467  0.28248904  0.91806066    -0.74300
O184        O  0.48809794  0.18912491  0.91495680    -0.74400
O185        O  0.02174951  0.23996586  0.88751108    -0.74400
O186        O  0.01857766  0.23543987  0.94604649    -0.74500
O187        O  0.49766086  0.26167857  0.94337952    -0.74400
O188        O  0.50350300  0.26253297  0.88500045    -0.74400
O189        O  0.45735379  0.21747856  0.91294750    -0.74300
O190        O  0.03171058  0.31020246  0.91878661    -0.74400
Ni191      Ni  0.02129774  0.23673684  0.91676126     1.25400
Ni192      Ni  0.49952396  0.26308974  0.91411439     1.25400
C193        C  0.06164041  0.31117400  0.91880403     0.87900
C194        C  0.45849613  0.18862985  0.91343688     0.87800
C195        C  0.00686370  0.25481143  0.87806083     0.87800
C196        C  0.00216271  0.24831146  0.95602562     0.88000
O197        O  0.22406608  0.44537004  0.91773996    -0.74300
O198        O  0.32676138  0.02460456  0.91286981    -0.74400
O199        O  0.27049780  0.49124387  0.94569809    -0.74400
O200        O  0.26447709  0.48802133  0.88709576    -0.74500
O201        O  0.25328110  0.01074226  0.88337802    -0.74400
O202        O  0.25458507  0.01478681  0.94182515    -0.74400
O203        O  0.29870956  0.05571647  0.91172909    -0.74300
O204        O  0.19346666  0.47388395  0.91839156    -0.74400
Ni205      Ni  0.26849586  0.48847710  0.91635454     1.25400
Ni206      Ni  0.25297616  0.01390262  0.91257065     1.25400
C207        C  0.19440213  0.44489976  0.91817998     0.87900
C208        C  0.32746058  0.05436588  0.91224934     0.87800
C209        C  0.25583066  0.50580090  0.95582300     0.87800
C210        C  0.24856074  0.50204580  0.87785241     0.88000
O211        O  0.28216494  0.31600485  0.91613359    -0.74300
O212        O  0.19466096  0.22784364  0.91822139    -0.74400
O213        O  0.24117381  0.27219265  0.94650538    -0.74400
O214        O  0.23560854  0.27147068  0.88778343    -0.74500
O215        O  0.26501405  0.24180030  0.88627611    -0.74400
O216        O  0.27214787  0.24401097  0.94467210    -0.74400
O217        O  0.22468252  0.19877612  0.91696134    -0.74300
O218        O  0.31200620  0.28689877  0.91400908    -0.74400
Ni219      Ni  0.23731760  0.27292795  0.91722215     1.25400
Ni220      Ni  0.26947004  0.24180192  0.91541006     1.25400
C221        C  0.31165818  0.31611934  0.91474139     0.87900
C222        C  0.19518872  0.19867673  0.91795401     0.87800
C223        C  0.25773050  0.25832650  0.95521315     0.87800
C224        C  0.24974853  0.25671412  0.87731175     0.88000
O225        O  0.48578568  0.48476776  0.61175305    -0.74300
O226        O  0.49596359  0.48643394  0.55354302    -0.74400
O227        O  0.03418493  0.48316192  0.58570752    -0.74400
O228        O  0.44823958  0.48754263  0.57974331    -0.74500
O229        O  0.47024717  0.03843621  0.58181952    -0.74400
O230        O  0.05572488  0.03099606  0.58685152    -0.74400
O231        O  0.01321623  0.03192686  0.55688381    -0.74300
O232        O  0.01168394  0.03333996  0.61539605    -0.74400
Ni233      Ni  0.48989695  0.48355553  0.58263083     1.25400
Ni234      Ni  0.01364416  0.03466399  0.58614162     1.25400
C235        C  0.99567824  0.00409922  0.62528656     0.87900
C236        C  0.99783269  0.00216664  0.54735390     0.87800
C237        C  0.05439055  0.00091197  0.58717465     0.87800
C238        C  0.44105200  0.00875603  0.58099280     0.88000
O239        O  0.46388685  0.27378049  0.58256549    -0.74300
O240        O  0.05192375  0.27534477  0.58391244    -0.74400
O241        O  0.00874848  0.27566190  0.55432077    -0.74400
O242        O  0.00755400  0.27589606  0.61290780    -0.74500
O243        O  0.47761854  0.21387108  0.61179395    -0.74400
O244        O  0.47624040  0.21342813  0.55316306    -0.74400
O245        O  0.02192009  0.21618091  0.58369121    -0.74300
O246        O  0.43347724  0.21474376  0.58285879    -0.74400
Ni247      Ni  0.00927322  0.27792513  0.58362789     1.25400
Ni248      Ni  0.47579726  0.21157980  0.58248314     1.25400
C249        C  0.43420931  0.24452536  0.58260867     0.87900
C250        C  0.05135589  0.24562350  0.58366782     0.87800
C251        C  0.99381413  0.24606611  0.54461556     0.87800
C252        C  0.99238948  0.24633585  0.62253976     0.88000
O253        O  0.19654067  0.48160929  0.58424139    -0.74300
O254        O  0.28560518  0.48431305  0.58128625    -0.74400
O255        O  0.24235244  0.48172036  0.61200798    -0.74400
O256        O  0.23965442  0.48407264  0.55361719    -0.74500
O257        O  0.25739093  0.03084761  0.55154611    -0.74400
O258        O  0.25971371  0.02535330  0.60989461    -0.74400
O259        O  0.30292540  0.02945739  0.57906656    -0.74300
O260        O  0.21392679  0.02658180  0.58257708    -0.74400
Ni261      Ni  0.24007665  0.48085364  0.58277040     1.25400
Ni262      Ni  0.25943813  0.03012593  0.58081721     1.25400
C263        C  0.19589357  0.51067820  0.58509079     0.87900
C264        C  0.31453959  0.51422280  0.58091993     0.87800
C265        C  0.25622058  0.51083657  0.62214761     0.87800
C266        C  0.25332900  0.51386890  0.54429411     0.88000
O267        O  0.18583473  0.21942264  0.58353543    -0.74300
O268        O  0.27418184  0.22051499  0.58298057    -0.74400
O269        O  0.23172248  0.22263832  0.61261915    -0.74400
O270        O  0.22854867  0.21766710  0.55383169    -0.74500
O271        O  0.25802788  0.27673896  0.55258392    -0.74400
O272        O  0.26027049  0.28176460  0.61106315    -0.74400
O273        O  0.30343251  0.27954251  0.58176820    -0.74300
O274        O  0.21491888  0.27853591  0.58197789    -0.74400
Ni275      Ni  0.22902298  0.21793519  0.58329208     1.25400
Ni276      Ni  0.26020236  0.28123235  0.58177086     1.25400
C277        C  0.18581629  0.24881782  0.58302970     0.87900
C278        C  0.30345863  0.25013126  0.58241029     0.87800
C279        C  0.24646561  0.25306405  0.62148783     0.87800
C280        C  0.24310721  0.24657109  0.54349771     0.88000
O281        O  0.05857900  0.03927191  0.75076211    -0.74300
O282        O  0.46580511  0.45478657  0.75033578    -0.74400
O283        O  0.00127573  0.49281465  0.72034953    -0.74400
O284        O  0.00042269  0.49254520  0.77877926    -0.74500
O285        O  0.47200406  0.02146522  0.77839359    -0.74400
O286        O  0.47272175  0.01861967  0.71963148    -0.74400
O287        O  0.43733560  0.48535514  0.75111414    -0.74300
O288        O  0.02735564  0.06715274  0.75150416    -0.74400
Ni289      Ni  0.00190376  0.49164907  0.74956494     1.25400
Ni290      Ni  0.47118446  0.02095522  0.74897957     1.25400
C291        C  0.05719536  0.06803017  0.75069438     0.87900
C292        C  0.43679542  0.45564649  0.75117499     0.87800
C293        C  0.98728170  0.50822999  0.71060510     0.87800
C294        C  0.98530118  0.50697377  0.78853678     0.88000
O295        O  0.02245718  0.30878428  0.74843586    -0.74300
O296        O  0.45157519  0.21534676  0.75060260    -0.74400
O297        O  0.49800323  0.26026825  0.77874921    -0.74400
O298        O  0.49163134  0.25934269  0.72044000    -0.74500
O299        O  0.01173605  0.23435395  0.72076659    -0.74400
O300        O  0.01791736  0.24128353  0.77924044    -0.74400
O301        O  0.48211033  0.18677218  0.74888066    -0.74300
O302        O  0.05630814  0.28361931  0.74784783    -0.74400
Ni303      Ni  0.49371553  0.26074134  0.74968514     1.25400
Ni304      Ni  0.01604282  0.23688195  0.74999358     1.25400
C305        C  0.05309961  0.31131964  0.74773758     0.87900
C306        C  0.45249142  0.18639656  0.74992101     0.87800
C307        C  0.00175026  0.25466324  0.78903974     0.87800
C308        C  0.99415457  0.24620564  0.71118065     0.88000
O309        O  0.18362008  0.47509729  0.74871950    -0.74300
O310        O  0.28948167  0.05396157  0.74683217    -0.74400
O311        O  0.24373757  0.01038157  0.71799757    -0.74400
O312        O  0.24771726  0.00931971  0.77624653    -0.74500
O313        O  0.25554058  0.48744277  0.77877769    -0.74400
O314        O  0.25903239  0.49084614  0.72032565    -0.74400
O315        O  0.31963933  0.02502569  0.74510809    -0.74300
O316        O  0.21312508  0.44538314  0.74818086    -0.74400
Ni317      Ni  0.24477460  0.01084192  0.74718808     1.25400
Ni318      Ni  0.25822831  0.48804668  0.74952191     1.25400
C319        C  0.18388178  0.44582346  0.74782238     0.87900
C320        C  0.31899917  0.05410577  0.74606091     0.87800
C321        C  0.24505398  0.50636149  0.71064734     0.87800
C322        C  0.24092360  0.50226301  0.78870139     0.88000
O323        O  0.26080356  0.24527654  0.77852074    -0.74300
O324        O  0.26365906  0.24787552  0.72002451    -0.74400
O325        O  0.30559194  0.29091778  0.75029585    -0.74400
O326        O  0.21893769  0.20237913  0.74826550    -0.74500
O327        O  0.18838812  0.23097133  0.74836807    -0.74400
O328        O  0.27545319  0.31981662  0.75031335    -0.74400
O329        O  0.23323179  0.27653523  0.71992457    -0.74300
O330        O  0.23035851  0.27396148  0.77877324    -0.74400
Ni331      Ni  0.26333708  0.24565245  0.74927641     1.25400
Ni332      Ni  0.23077030  0.27639034  0.74934623     1.25400
C333        C  0.24512019  0.25907504  0.78836818     0.87900
C334        C  0.24863307  0.26225635  0.71022544     0.87800
C335        C  0.30507288  0.32005555  0.75058899     0.87800
C336        C  0.18931214  0.20199117  0.74792144     0.88000
C337        C  0.41860802  0.15227112  0.74957992    -0.00100
C338        C  0.38841137  0.15192434  0.74166287    -0.11900
C339        C  0.35584365  0.12042753  0.74019042     0.02200
C340        C  0.35294492  0.08818697  0.74679943    -0.00100
C341        C  0.38311903  0.08852276  0.75480807    -0.11900
C342        C  0.41570163  0.12011685  0.75636684     0.02100
H343        H  0.39034740  0.17634875  0.73619032     0.15100
H344        H  0.38112913  0.06407132  0.76027115     0.15100
C345        C  0.44511873  0.11877662  0.76571942     0.36700
C346        C  0.32636434  0.12209904  0.73120233     0.36600
N347        N  0.46856438  0.11759984  0.77329934    -0.43600
N348        N  0.30286253  0.12364736  0.72400292    -0.43600
C349        C  0.08546655  0.34662349  0.74695415    -0.00100
C350        C  0.11436412  0.35075543  0.73516887    -0.11900
C351        C  0.14631436  0.38311284  0.73476583     0.02200
C352        C  0.14990420  0.41198747  0.74659618    -0.00100
C353        C  0.12069053  0.40820280  0.75791984    -0.11900
C354        C  0.08865708  0.37584555  0.75827160    -0.07500
H355        H  0.11191043  0.32863209  0.72614614     0.15100
H356        H  0.12327074  0.43024365  0.76707741     0.15100
C357        C  0.06037429  0.37282161  0.77134841     0.36700
C358        C  0.17448021  0.38630440  0.72151723     0.36600
N359        N  0.03777876  0.37036461  0.78189340    -0.43600
N360        N  0.19695989  0.38893780  0.71080616    -0.43600
C361        C  0.33906605  0.35448856  0.75121206    -0.00100
C362        C  0.33804587  0.38592837  0.75462540    -0.11900
C363        C  0.36919591  0.41914084  0.75497898     0.02200
C364        C  0.40255830  0.42147802  0.75179547    -0.00100
C365        C  0.40351871  0.38998617  0.74867415    -0.11900
C366        C  0.37253426  0.35690068  0.74833216     0.02100
H367        H  0.31274845  0.38469203  0.75706622     0.15100
H368        H  0.42871789  0.39103902  0.74615919     0.15100
C369        C  0.37645136  0.32628088  0.74453928     0.36700
C370        C  0.36573159  0.45000639  0.75879473     0.36600
N371        N  0.37983242  0.30190236  0.74150024    -0.43600
N372        N  0.36276331  0.47462447  0.76185898    -0.43600
C373        C  0.09054629  0.10271422  0.74959664    -0.00100
C374        C  0.12100678  0.10403541  0.74121154    -0.11900
C375        C  0.15328010  0.13603273  0.74005846     0.02200
C376        C  0.15557241  0.16767017  0.74756703    -0.00100
C377        C  0.12497786  0.16645042  0.75558450    -0.11900
C378        C  0.09275416  0.13452368  0.75674819     0.02100
H379        H  0.11959012  0.07998908  0.73535323     0.15100
H380        H  0.12639168  0.19045392  0.76152649     0.15100
C381        C  0.06301636  0.13530410  0.76618509     0.36700
C382        C  0.18317419  0.13554575  0.73061951     0.36600
N383        N  0.03928243  0.13604973  0.77377656    -0.43600
N384        N  0.20707441  0.13510075  0.72303834    -0.43600
C385        C  0.24740371  0.25535040  0.64410482    -0.00100
C386        C  0.24105287  0.28060539  0.65368390    -0.11900
C387        C  0.24131296  0.28360468  0.67509768     0.02200
C388        C  0.24850847  0.26117567  0.68740775    -0.00100
C389        C  0.25549914  0.23636458  0.67764880    -0.11900
C390        C  0.25494149  0.23325286  0.65628237     0.02100
H391        H  0.23543816  0.29783069  0.64438029     0.15100
H392        H  0.26122600  0.21900013  0.68672484     0.15100
C393        C  0.26365784  0.20817682  0.64725445     0.36700
C394        C  0.23468236  0.31034020  0.68379055     0.36600
N395        N  0.27080108  0.18819910  0.64002852    -0.43600
N396        N  0.22930465  0.33180115  0.69063534    -0.43600
C397        C  0.25449987  0.50979694  0.64477126    -0.00100
C398        C  0.24424639  0.01851655  0.65267810    -0.11900
C399        C  0.24713260  0.01987415  0.67401915     0.02200
C400        C  0.24739070  0.50793400  0.68794289    -0.00100
C401        C  0.25302130  0.48275584  0.67756331    -0.11900
C402        C  0.25621633  0.48322911  0.65621453     0.02100
H403        H  0.23813032  0.03682529  0.64490952     0.15100
H404        H  0.25463642  0.46230049  0.68613434     0.15100
C405        C  0.26192489  0.45652682  0.64657271     0.36700
C406        C  0.24225074  0.04642590  0.68453448     0.36600
N407        N  0.26636856  0.43502581  0.63888882    -0.43600
N408        N  0.23817598  0.06769601  0.69282872    -0.43600
C409        C  0.33746621  0.24976699  0.58237263    -0.00100
C410        C  0.33652792  0.21782647  0.57745437    -0.11900
C411        C  0.36738939  0.21537645  0.57731229     0.02200
C412        C  0.40047427  0.24542741  0.58237527    -0.00100
C413        C  0.40148126  0.27745969  0.58719151    -0.11900
C414        C  0.37057380  0.27993821  0.58722891     0.02100
H415        H  0.31149443  0.19449897  0.57343873     0.15100
H416        H  0.42654714  0.30077381  0.59116991     0.15100
C417        C  0.37387815  0.31363613  0.59278451     0.36700
C418        C  0.36400342  0.18179245  0.57135039     0.36600
N419        N  0.37669549  0.34071359  0.59722294    -0.43600
N420        N  0.36114097  0.15484425  0.56653988    -0.43600
C421        C  0.08532797  0.24557373  0.58348372    -0.00100
C422        C  0.11496985  0.27378997  0.59303666    -0.11900
C423        C  0.14783337  0.27525389  0.59326620     0.02200
C424        C  0.15157630  0.24823541  0.58355316    -0.00100
C425        C  0.12190303  0.21985371  0.57413136    -0.11900
C426        C  0.08898607  0.21833624  0.57392857     0.02100
H427        H  0.11233920  0.29456005  0.60067279     0.15100
H428        H  0.12459767  0.19909604  0.56652533     0.15100
C429        C  0.06001724  0.18935539  0.56304096     0.36700
C430        C  0.17671964  0.30392699  0.60437126     0.36600
N431        N  0.03688619  0.16616140  0.55426671    -0.43600
N432        N  0.19979706  0.32681848  0.61334657    -0.43600
C433        C  0.99194575  0.24626216  0.64517918    -0.00100
C434        C  0.99477995  0.21958001  0.65553060    -0.11900
C435        C  0.99547567  0.21884102  0.67696053     0.02200
C436        C  0.99274212  0.24498366  0.68849091    -0.00100
C437        C  0.50006888  0.27115141  0.67744381    -0.11900
C438        C  0.49657928  0.27152897  0.65614736     0.02100
H439        H  0.99703741  0.19949106  0.64682836     0.15100
H440        H  0.50178251  0.29293955  0.68648339     0.15100
C441        C  0.49341885  0.30016625  0.64723768     0.36700
C442        C  0.99834113  0.19052594  0.68655437     0.36600
N443        N  0.49063364  0.32299938  0.64015127    -0.43600
N444        N  0.00076440  0.16779872  0.69409218    -0.43600
C445        C  0.40644282  0.00771776  0.57967831    -0.00100
C446        C  0.38500718  0.48781229  0.57197739    -0.11900
C447        C  0.35193708  0.48592561  0.57218916     0.02200
C448        C  0.34915356  0.51530321  0.57916223    -0.00100
C449        C  0.36940973  0.03500954  0.58104656    -0.11900
C450        C  0.40298075  0.03816398  0.58216937     0.02100
H451        H  0.38651442  0.46485320  0.56683264     0.15100
H452        H  0.36736133  0.05863852  0.58330278     0.15100
C453        C  0.43296111  0.07300248  0.58622855     0.36700
C454        C  0.32167932  0.45362110  0.56476177     0.36600
N455        N  0.45682813  0.10101534  0.58945487    -0.43600
N456        N  0.29756142  0.42770729  0.55874994    -0.43600
C457        C  0.08761391  0.99941254  0.58711069    -0.00100
C458        C  0.09827907  0.48263825  0.57881641    -0.11900
C459        C  0.12982928  0.48150695  0.57793959     0.02200
C460        C  0.16143672  0.50979973  0.58620848    -0.00100
C461        C  0.15054586  0.02461630  0.59431429    -0.11900
C462        C  0.11937862  0.02636732  0.59595288     0.02100
H463        H  0.07446487  0.46121181  0.57189855     0.15100
H464        H  0.17479053  0.04556502  0.60113635     0.15100
C465        C  0.12058992  0.05540898  0.60744868     0.36700
C466        C  0.12900756  0.45165579  0.56764445     0.36600
N467        N  0.12156794  0.07857878  0.61676723    -0.43600
N468        N  0.12808533  0.42760400  0.55940531    -0.43600
C469        C  0.99455655  0.00460928  0.64798147    -0.00100
C470        C  0.98759552  0.48155029  0.65526523    -0.11900
C471        C  0.98386227  0.47922917  0.67656614     0.02200
C472        C  0.99409426  0.00393355  0.69128681    -0.00100
C473        C  0.49085660  0.03222522  0.67707607    -0.11900
C474        C  0.49320802  0.03410249  0.65566083     0.02100
H475        H  0.98386086  0.45845106  0.64677195     0.15100
H476        H  0.49130794  0.05392502  0.68558789     0.15100
C477        C  0.49461374  0.06453263  0.64590642     0.36700
C478        C  0.97420890  0.44576773  0.68623432     0.36600
N479        N  0.49570260  0.08893794  0.63815067    -0.43600
N480        N  0.96647774  0.41898512  0.69399875    -0.43600
C481        C  0.24860643  0.25704423  0.85454673    -0.00100
C482        C  0.22129235  0.25985392  0.84479103    -0.11900
C483        C  0.21916508  0.26020093  0.82333359     0.02200
C484        C  0.24512516  0.25823599  0.81114260    -0.00100
C485        C  0.27231294  0.25534792  0.82093650    -0.11900
C486        C  0.27432995  0.25475245  0.84229470     0.02100
H487        H  0.20110619  0.26117703  0.85395403     0.15100
H488        H  0.29261223  0.25408020  0.81185126     0.15100
C489        C  0.30392826  0.25298614  0.85104005     0.36700
C490        C  0.18926228  0.26109670  0.81437673     0.36600
N491        N  0.32766957  0.25154234  0.85796674    -0.43600
N492        N  0.16514882  0.26162297  0.80727036    -0.43600
C493        C  0.24612732  0.50103214  0.85503433    -0.00100
C494        C  0.26470438  0.02120417  0.84099135    -0.11900
C495        C  0.26399419  0.02226427  0.81961434     0.02200
C496        C  0.24135043  0.50183772  0.81155881    -0.00100
C497        C  0.25415737  0.48166518  0.82130996    -0.11900
C498        C  0.25668617  0.48107254  0.84266556     0.02100
H499        H  0.26399746  0.04213406  0.84971240     0.15100
H500        H  0.26249738  0.46618525  0.81221360     0.15100
C501        C  0.27014105  0.45948935  0.85118257     0.36700
C502        C  0.26283228  0.05176555  0.81031274     0.36600
N503        N  0.28100591  0.44218743  0.85788227    -0.43600
N504        N  0.26183592  0.07540734  0.80294165    -0.43600
C505        C  0.42521461  0.15413326  0.91240509    -0.00100
C506        C  0.42253721  0.12558566  0.92381022    -0.11900
C507        C  0.39113526  0.09266973  0.92384473     0.02200
C508        C  0.36177151  0.08790235  0.91212059    -0.00100
C509        C  0.36470530  0.11625673  0.90043011    -0.11900
C510        C  0.39608965  0.14910962  0.90036519     0.02100
H511        H  0.44475391  0.12926482  0.93316027     0.15100
H512        H  0.34244024  0.11263129  0.89114463     0.15100
C513        C  0.39808760  0.17665347  0.88717946     0.36700
C514        C  0.38920092  0.06502016  0.93691463     0.36600
N515        N  0.39972557  0.19863989  0.87653152    -0.43600
N516        N  0.38767008  0.04297242  0.94746787    -0.43600
C517        C  0.09523326  0.34572556  0.91917088    -0.00100
C518        C  0.12617286  0.34693942  0.91171608    -0.11900
C519        C  0.15858609  0.37872500  0.91113563     0.02200
C520        C  0.16071957  0.41043683  0.91839764    -0.00100
C521        C  0.12979829  0.40927466  0.92587862    -0.11900
C522        C  0.09726945  0.37744102  0.92633188     0.02100
H523        H  0.12498207  0.32298917  0.90586421     0.15100
H524        H  0.13103747  0.43331546  0.93160112     0.15100
C525        C  0.06684930  0.37826096  0.93467455     0.36700
C526        C  0.18865756  0.37788277  0.90222330     0.36600
N527        N  0.04255679  0.37908306  0.94135294    -0.43600
N528        N  0.21262933  0.37706250  0.89503463    -0.43600
C529        C  0.00755235  0.25638790  0.85527126    -0.00100
C530        C  0.98525067  0.26641230  0.84535163    -0.11900
C531        C  0.98328726  0.26682435  0.82396815     0.02200
C532        C  0.00390721  0.25675339  0.81181598    -0.00100
C533        C  0.52058289  0.22157617  0.82040473    -0.11900
C534        C  0.52160413  0.22097804  0.84184841     0.02100
H535        H  0.96867033  0.27352469  0.85432823     0.15100
H536        H  0.52058733  0.20025583  0.81172294     0.15100
C537        C  0.52221037  0.19147953  0.85151484     0.36700
C538        C  0.95936972  0.27725616  0.81522635     0.36600
N539        N  0.52268729  0.16780666  0.85922192    -0.43600
N540        N  0.94021858  0.28573202  0.80834888    -0.43600
C541        C  0.34558552  0.35063083  0.91412534    -0.00100
C542        C  0.34403322  0.38212450  0.91322518    -0.11900
C543        C  0.37489325  0.41547944  0.91319343     0.02200
C544        C  0.40866227  0.41802073  0.91415281    -0.00100
C545        C  0.41020431  0.38651075  0.91472566    -0.11900
C546        C  0.37938375  0.35318369  0.91470818     0.02100
H547        H  0.31848126  0.38086040  0.91257286     0.15100
H548        H  0.43573209  0.38772532  0.91539255     0.15100
C549        C  0.38380649  0.32242938  0.91556909     0.36700
C550        C  0.37058831  0.44628351  0.91207449     0.36600
N551        N  0.38758567  0.29793645  0.91624375    -0.43600
N552        N  0.36690925  0.47082071  0.91116577    -0.43600
C553        C  0.09465749  0.10094090  0.92104524    -0.00100
C554        C  0.12494703  0.10085250  0.91349975    -0.11900
C555        C  0.15783816  0.13207767  0.91232060     0.02200
C556        C  0.16111275  0.16457852  0.91894805    -0.00100
C557        C  0.13089037  0.16465500  0.92665774    -0.11900
C558        C  0.09793765  0.13338438  0.92779445     0.02100
H559        H  0.12287405  0.07629727  0.90804146     0.15100
H560        H  0.13299385  0.18927064  0.93202297     0.15100
C561        C  0.06840204  0.13555356  0.93640247     0.36700
C562        C  0.18721078  0.12980484  0.90353837     0.36600
N563        N  0.04484217  0.13745802  0.94331879    -0.43600
N564        N  0.21063334  0.12782337  0.89647593    -0.43600
C565        C  0.98621809  0.50803464  0.85464972    -0.00100
C566        C  0.52340630  0.50620370  0.84339964    -0.11900
C567        C  0.52417925  0.50646958  0.82194879     0.02200
C568        C  0.98471513  0.50625399  0.81125387    -0.00100
C569        C  0.00410986  0.03919470  0.82507586    -0.11900
C570        C  0.00467347  0.04038573  0.84655612     0.02100
H571        H  0.53966392  0.49782297  0.85155761     0.15100
H572        H  0.00393300  0.06050997  0.81660149     0.15100
C573        C  0.00633005  0.07088371  0.85652668     0.36700
C574        C  0.54768812  0.49653825  0.81197885     0.36600
N575        N  0.00785494  0.09544045  0.86447898    -0.43600
N576        N  0.56667615  0.48868699  0.80408928    -0.43600
C577        C  0.26060387  0.25896493  0.97776946    -0.00100
C578        C  0.29349819  0.26818106  0.98663734    -0.11900
C579        C  0.29762218  0.26914653  0.00797355     0.02200
C580        C  0.26804001  0.26001359  0.02094227    -0.00100
C581        C  0.23504096  0.25051031  0.01187289    -0.11900
C582        C  0.23116231  0.25005621  0.99056874     0.02100
H583        H  0.31623484  0.27507897  0.97681738     0.15100
H584        H  0.21199341  0.24343980  0.02143162     0.15100
C585        C  0.19633274  0.23886795  0.98223444     0.36700
C586        C  0.33247017  0.27930802  0.01588166     0.36600
N587        N  0.16841038  0.22978139  0.97555445    -0.43600
N588        N  0.36049822  0.28761304  0.02211161    -0.43600
C589        C  0.27022761  0.41766908  0.08228056    -0.00100
C590        C  0.24228583  0.38748961  0.07291633    -0.11900
C591        C  0.24185911  0.35508088  0.07257102     0.02200
C592        C  0.26984329  0.35243268  0.08180921    -0.00100
C593        C  0.29783816  0.38261911  0.09102751    -0.11900
C594        C  0.29810454  0.41486612  0.09153102     0.02100
H595        H  0.22082502  0.38928538  0.06563233     0.15100
H596        H  0.31919868  0.38078101  0.09842865     0.15100
C597        C  0.32614287  0.44374088  0.10288189     0.36700
C598        C  0.21305908  0.32547357  0.06198968     0.36600
N599        N  0.34851634  0.46644956  0.11230096    -0.43600
N600        N  0.18999448  0.30181381  0.05346342    -0.43600
C601        C  0.27323558  0.10386215  0.07996943    -0.00100
C602        C  0.30300904  0.13403153  0.08811628    -0.11900
C603        C  0.30412297  0.16676252  0.08949755     0.02200
C604        C  0.27510853  0.16993392  0.08236603    -0.00100
C605        C  0.24542254  0.13978792  0.07421471    -0.11900
C606        C  0.24420128  0.10710446  0.07292241     0.02100
H607        H  0.32526637  0.13190673  0.09388267     0.15100
H608        H  0.22307518  0.14180828  0.06849634     0.15100
C609        C  0.21308843  0.07778759  0.06372356     0.36700
C610        C  0.33469419  0.19602888  0.09912985     0.36600
N611        N  0.18808814  0.05439875  0.05635298    -0.43600
N612        N  0.35917808  0.21933238  0.10695272    -0.43600
C613        C  0.25824437  0.50730512  0.97840910    -0.00100
C614        C  0.29092641  0.51695843  0.98770027    -0.11900
C615        C  0.29455501  0.51901097  0.00908746     0.02200
C616        C  0.26460719  0.51026350  0.02168111    -0.00100
C617        C  0.24308819  0.00565140  0.00714434    -0.11900
C618        C  0.24126673  0.00291726  0.98576355     0.02100
H619        H  0.31388565  0.52341974  0.97817243     0.15100
H620        H  0.22243482  0.00757893  0.01543996     0.15100
C621        C  0.21066313  0.00085778  0.97574982     0.36700
C622        C  0.32930947  0.52995507  0.01743574     0.36600
N623        N  0.18606059  0.99900524  0.96772554    -0.43600
N624        N  0.35728322  0.53897926  0.02401975    -0.43600
C625        C  0.00023064  0.24600615  0.97872416    -0.00100
C626        C  0.48376809  0.25334276  0.98565987    -0.11900
C627        C  0.47981131  0.25302119  0.00696026     0.02200
C628        C  0.99407764  0.24135726  0.02195230    -0.00100
C629        C  0.02256523  0.24094794  0.01201625    -0.11900
C630        C  0.02586231  0.24317346  0.99065187     0.02100
H631        H  0.46614724  0.25801305  0.97609730     0.15100
H632        H  0.04241664  0.23886707  0.02100296     0.15100
C633        C  0.05653353  0.24374363  0.98159795     0.36700
C634        C  0.45347863  0.26062710  0.01531109     0.36600
N635        N  0.08116384  0.24424358  0.97439897    -0.43600
N636        N  0.43250321  0.26688055  0.02200503    -0.43600
C637        C  0.98132794  0.39181800  0.08202386    -0.00100
C638        C  0.52253027  0.40171987  0.08855592    -0.11900
C639        C  0.52415975  0.37042964  0.08890101     0.02200
C640        C  0.98572971  0.32920752  0.08316668    -0.00100
C641        C  0.95727096  0.32955901  0.07317756    -0.11900
C642        C  0.95487126  0.36047855  0.07248849     0.02100
H643        H  0.54296781  0.42505061  0.09640030     0.15100
H644        H  0.93715679  0.30576801  0.06553207     0.15100
C645        C  0.92589919  0.35956952  0.06116573     0.36700
C646        C  0.55289106  0.37060773  0.10010003     0.36600
N647        N  0.90267903  0.35870309  0.05202520    -0.43600
N648        N  0.57591079  0.37083438  0.10911685    -0.43600
C649        C  0.99218310  0.08276929  0.08759778    -0.00100
C650        C  0.02186178  0.11279930  0.07935830    -0.11900
C651        C  0.02308286  0.14552566  0.07825131     0.02200
C652        C  0.99405032  0.14864623  0.08550062    -0.00100
C653        C  0.45801065  0.12025370  0.08017632    -0.11900
C654        C  0.45483318  0.08660472  0.08044882     0.02100
H655        H  0.04393698  0.11055769  0.07329157     0.15100
H656        H  0.43450297  0.12213794  0.07705407     0.15100
C657        C  0.42015810  0.05631797  0.07641871     0.36700
C658        C  0.05387406  0.17487750  0.06888140     0.36600
N659        N  0.39227694  0.03221912  0.07319276    -0.43600
N660        N  0.07861601  0.19831372  0.06137050    -0.43600
C661        C  0.98211057  0.48788459  0.02055099    -0.00100
C662        C  0.01430964  0.49801112  0.01022975    -0.11900
C663        C  0.01703317  0.50230144  0.98895071     0.02200
C664        C  0.98723879  0.49681173  0.97751897    -0.00100
C665        C  0.45451813  0.98257032  0.98738949    -0.11900
C666        C  0.45220552  0.97933972  0.00875672     0.02100
H667        H  0.03767983  0.50283785  0.01878745     0.15100
H668        H  0.43043439  0.97266082  0.97840247     0.15100
C669        C  0.41711364  0.96204375  0.01777056     0.36700
C670        C  0.05107642  0.51376843  0.97933864     0.36600
N671        N  0.38889980  0.94793032  0.02486865    -0.43600
N672        N  0.07832976  0.52301958  0.97160651    -0.43600
C673        C  0.23863573  0.24199278  0.47734223    -0.00100
C674        C  0.26664466  0.27112992  0.48737828    -0.11900
C675        C  0.26895013  0.27289634  0.50876175     0.02200
C676        C  0.24245817  0.24521849  0.52074309    -0.00100
C677        C  0.21444443  0.21594292  0.51073328    -0.11900
C678        C  0.21225486  0.21412915  0.48926257     0.02100
H679        H  0.28745534  0.29240633  0.47845135     0.15100
H680        H  0.19376824  0.19465269  0.51971112     0.15100
C681        C  0.18196072  0.18405841  0.47999241     0.36700
C682        C  0.29971733  0.30278956  0.51783834     0.36600
N683        N  0.15758534  0.15998850  0.47261157    -0.43600
N684        N  0.32445410  0.32670309  0.52505872    -0.43600
C685        C  0.24837019  0.01107955  0.47484123    -0.00100
C686        C  0.23056430  0.48659134  0.48837038    -0.11900
C687        C  0.22870811  0.48496025  0.50974410     0.02200
C688        C  0.25286586  0.51460886  0.52156585    -0.00100
C689        C  0.27056772  0.03557750  0.50877887    -0.11900
C690        C  0.27342676  0.03884747  0.48739481     0.02100
H691        H  0.21173968  0.46359744  0.47959065     0.15100
H692        H  0.29040797  0.05684361  0.51819454     0.15100
C693        C  0.30338889  0.07016047  0.47889506     0.36700
C694        C  0.20144965  0.45244419  0.51889402     0.36600
N695        N  0.32754859  0.09523206  0.47217707    -0.43600
N696        N  0.17966036  0.42619320  0.52605918    -0.43600
C697        C  0.99415265  0.24538335  0.52187042    -0.00100
C698        C  0.46994546  0.20949519  0.51043845    -0.11900
C699        C  0.46881930  0.20687079  0.48901545     0.02200
C700        C  0.99353751  0.24063120  0.47850865    -0.00100
C701        C  0.00180281  0.27268462  0.48834006    -0.11900
C702        C  0.00217335  0.27536472  0.50972442     0.02100
H703        H  0.45401744  0.18564485  0.51933195     0.15100
H704        H  0.00762278  0.29584717  0.47929338     0.15100
C705        C  0.01011399  0.30906900  0.51853844     0.36700
C706        C  0.44536306  0.17251895  0.48005207     0.36600
N707        N  0.01653586  0.33615451  0.52549706    -0.43600
N708        N  0.42636516  0.14495595  0.47297667    -0.43600
C709        C  0.39884942  0.23879256  0.41801641    -0.00100
C710        C  0.39992967  0.27128873  0.41514304    -0.11900
C711        C  0.36908083  0.27363655  0.41600104     0.02200
C712        C  0.33583422  0.24265293  0.41939729    -0.00100
C713        C  0.33494567  0.21042845  0.42306896    -0.11900
C714        C  0.36590316  0.20824293  0.42264598     0.02100
H715        H  0.42502382  0.29514859  0.41201133     0.15100
H716        H  0.30987112  0.18660772  0.42630384     0.15100
C717        C  0.36270947  0.17437439  0.42748725     0.36700
C718        C  0.37284904  0.30827330  0.41312475     0.36600
N719        N  0.35999651  0.14722434  0.43146904    -0.43600
N720        N  0.37614315  0.33615397  0.41093402    -0.43600
C721        C  0.15007926  0.24019990  0.41300817    -0.00100
C722        C  0.12077761  0.21163231  0.42255910    -0.11900
C723        C  0.08813963  0.21048663  0.42408801     0.02200
C724        C  0.08413681  0.23807883  0.41554834    -0.00100
C725        C  0.11342042  0.26663968  0.40597746    -0.11900
C726        C  0.14619497  0.26799029  0.40465788     0.02100
H727        H  0.12363841  0.19054878  0.42945633     0.15100
H728        H  0.11063986  0.28789868  0.39928021     0.15100
C729        C  0.17495375  0.29781236  0.39423937     0.36700
C730        C  0.05999530  0.18164643  0.43546255     0.36600
N731        N  0.19794113  0.32178350  0.38591223    -0.43600
N732        N  0.03762071  0.15860112  0.44469510    -0.43600
C733        C  0.99734455  0.00412174  0.48133071    -0.00100
C734        C  0.50217042  0.48671899  0.48796892    -0.11900
C735        C  0.50184262  0.48492933  0.50935841     0.02200
C736        C  0.99771261  0.00204628  0.52466629    -0.00100
C737        C  0.99856759  0.03079739  0.51440393    -0.11900
C738        C  0.99803914  0.03193406  0.49297881     0.02100
H739        H  0.49108150  0.46210328  0.47933849     0.15100
H740        H  0.99885178  0.05218691  0.52317042     0.15100
C741        C  0.99645946  0.06107751  0.48351355     0.36700
C742        C  0.48738257  0.45013731  0.51841289     0.36600
N743        N  0.99495402  0.08433535  0.47598857    -0.43600
N744        N  0.47582012  0.42217385  0.52552871    -0.43600
C745        C  0.41081044  0.01550266  0.41600910    -0.00100
C746        C  0.41057413  0.04588144  0.40895517    -0.11900
C747        C  0.37906966  0.04729674  0.40835709     0.02200
C748        C  0.34668462  0.01754610  0.41467402    -0.00100
C749        C  0.35204096  0.48265845  0.41280140    -0.11900
C750        C  0.38366522  0.48157365  0.41197594     0.02100
H751        H  0.43505672  0.06857881  0.40363668     0.15100
H752        H  0.32751685  0.45947765  0.40795364     0.15100
C753        C  0.38199590  0.44960986  0.40423197     0.36700
C754        C  0.38103393  0.07942708  0.40086619     0.36600
N755        N  0.38052087  0.42397926  0.39795928    -0.43600
N756        N  0.38303616  0.10543026  0.39498602    -0.43600
C757        C  0.09080049  0.00540911  0.41850495    -0.00100
C758        C  0.09233355  0.97694895  0.40934459    -0.11900
C759        C  0.12465313  0.97749323  0.40717323     0.02200
C760        C  0.15647211  0.00714913  0.41422373    -0.00100
C761        C  0.16740122  0.54596456  0.41710048    -0.11900
C762        C  0.13607729  0.54761407  0.41718031     0.02100
H763        H  0.06824588  0.95439492  0.40346642     0.15100
H764        H  0.19231483  0.56986391  0.42054805     0.15100
C765        C  0.13898513  0.58149050  0.42181637     0.36700
C766        C  0.12425783  0.94765123  0.39712691     0.36600
N767        N  0.14154341  0.60872979  0.42548836    -0.43600
N768        N  0.12379798  0.92364661  0.38910472    -0.43600
C769        C  0.27577871  0.26279462  0.14448636    -0.00100
C770        C  0.25105664  0.23168906  0.15457346    -0.11900
C771        C  0.25018507  0.22957739  0.17595096     0.02200
C772        C  0.27419830  0.25921935  0.18776285    -0.00100
C773        C  0.29933382  0.29025919  0.17773274    -0.11900
C774        C  0.30017221  0.29236131  0.15624476     0.02100
H775        H  0.23259332  0.20866469  0.14568318     0.15100
H776        H  0.31762408  0.31323962  0.18670534     0.15100
C777        C  0.32485186  0.32570570  0.14674628     0.36700
C778        C  0.22526774  0.19615591  0.18532711     0.36600
N779        N  0.34446818  0.35251888  0.13916152    -0.43600
N780        N  0.20543511  0.16935398  0.19284261    -0.43600
C781        C  0.25989538  0.24442767  0.31096411    -0.00100
C782        C  0.28904201  0.26717363  0.32329903    -0.11900
C783        C  0.28639012  0.26598772  0.34473215     0.02200
C784        C  0.25393366  0.24195436  0.35428717    -0.00100
C785        C  0.22548809  0.21780410  0.34211426    -0.11900
C786        C  0.22815069  0.21866585  0.32068928     0.02100
H787        H  0.31393225  0.28632042  0.31621781     0.15100
H788        H  0.20079769  0.19856241  0.34936125     0.15100
C789        C  0.19800596  0.19219032  0.30926999     0.36700
C790        C  0.31784382  0.28864527  0.35654132     0.36600
N791        N  0.17379591  0.17084070  0.30021810    -0.43600
N792        N  0.34325728  0.30658997  0.36589686    -0.43600
C793        C  0.26619549  0.41068158  0.25172653    -0.00100
C794        C  0.29553099  0.40998763  0.24311276    -0.11900
C795        C  0.29727886  0.37872440  0.24272595     0.02200
C796        C  0.26932830  0.34728183  0.25128625    -0.00100
C797        C  0.24017172  0.34805292  0.26005604    -0.11900
C798        C  0.23840640  0.37927426  0.26043875     0.02100
H799        H  0.31688361  0.43380231  0.23620497     0.15100
H800        H  0.21873598  0.32417113  0.26686054     0.15100
C801        C  0.20831799  0.37840388  0.27051133     0.36700
C802        C  0.32719181  0.37940791  0.23253142     0.36600
N803        N  0.18422056  0.37763449  0.27863517    -0.43600
N804        N  0.35112204  0.38001672  0.22428793    -0.43600
C805        C  0.26633424  0.16093672  0.24660034    -0.00100
C806        C  0.29762058  0.16061629  0.24139925    -0.11900
C807        C  0.29834264  0.12881060  0.24043248     0.02200
C808        C  0.26727000  0.09632312  0.24502652    -0.00100
C809        C  0.23602496  0.09672701  0.25007813    -0.11900
C810        C  0.23517330  0.12832384  0.25085658     0.02100
H811        H  0.32162371  0.18530412  0.23779089     0.15100
H812        H  0.21194867  0.07214572  0.25375277     0.15100
C813        C  0.20190863  0.12602741  0.25653425     0.36700
C814        C  0.33103219  0.13051713  0.23404816     0.36600
N815        N  0.17510326  0.12388845  0.26100203    -0.43600
N816        N  0.35726918  0.13211110  0.22880490    -0.43600
C817        C  0.26852200  0.50626471  0.14529449    -0.00100
C818        C  0.23924538  0.98429177  0.15105956    -0.11900
C819        C  0.23665581  0.98055677  0.17236410     0.02200
C820        C  0.26602421  0.50193850  0.18866059    -0.00100
C821        C  0.29606603  0.52877746  0.17860528    -0.11900
C822        C  0.29756029  0.53125935  0.15719867     0.02100
H823        H  0.21568050  0.96826281  0.14191009     0.15100
H824        H  0.31830119  0.54849089  0.18751402     0.15100
C825        C  0.32873973  0.56055001  0.14808572     0.36700
C826        C  0.20268611  0.95464842  0.18079792     0.36600
N827        N  0.35376074  0.58409028  0.14086342    -0.43600
N828        N  0.17541198  0.93378007  0.18743063    -0.43600
C829        C  0.25480148  0.01156038  0.35128295    -0.00100
C830        C  0.23036658  0.48785100  0.34495968    -0.11900
C831        C  0.22955729  0.48541395  0.32358357     0.02200
C832        C  0.26162035  0.50387953  0.31218407    -0.00100
C833        C  0.28377634  0.03490964  0.31839119    -0.11900
C834        C  0.28286589  0.03847909  0.33972027     0.02100
H835        H  0.20577457  0.47376909  0.35358802     0.15100
H836        H  0.30543874  0.05571255  0.30967963     0.15100
C837        C  0.31181868  0.06939449  0.34926043     0.36700
C838        C  0.19526395  0.46378795  0.31407968     0.36600
N839        N  0.33515374  0.09430075  0.35672973    -0.43600
N840        N  0.16766667  0.44651992  0.30659041    -0.43600
C841        C  0.98848805  0.24237091  0.18861945    -0.00100
C842        C  0.45859763  0.22205627  0.17534874    -0.11900
C843        C  0.45813993  0.22118389  0.15388215     0.02200
C844        C  0.98765518  0.23962260  0.14525836    -0.00100
C845        C  0.01532730  0.26843642  0.15573896    -0.11900
C846        C  0.01594104  0.27012929  0.17717543     0.02100
H847        H  0.43545017  0.20238654  0.18365375     0.15100
H848        H  0.03640047  0.29005415  0.14713983     0.15100
C849        C  0.04439171  0.30127996  0.18689099     0.36700
C850        C  0.42672710  0.19362915  0.14388141     0.36600
N851        N  0.06716740  0.32631726  0.19461747    -0.43600
N852        N  0.40150909  0.17151365  0.13592892    -0.43600
C853        C  0.99088577  0.23570742  0.35526520    -0.00100
C854        C  0.45963694  0.21207125  0.34273675    -0.11900
C855        C  0.45734733  0.21232489  0.32129014     0.02200
C856        C  0.98818328  0.23557849  0.31197896    -0.00100
C857        C  0.01911553  0.26006387  0.32248254    -0.11900
C858        C  0.02077341  0.26018902  0.34387475     0.02100
H859        H  0.43802922  0.19099944  0.35133628     0.15100
H860        H  0.04217932  0.27939851  0.31398781     0.15100
C861        C  0.05399649  0.28466714  0.35368280     0.36700
C862        C  0.42617201  0.18393963  0.31158190     0.36600
N863        N  0.08069142  0.30406263  0.36152378    -0.43600
N864        N  0.40102733  0.16123951  0.30390155    -0.43600
C865        C  0.98798384  0.39747348  0.25237579    -0.00100
C866        C  0.45969457  0.37249265  0.24571202    -0.11900
C867        C  0.45725118  0.33922549  0.24513312     0.02200
C868        C  0.98655830  0.33173993  0.25168262    -0.00100
C869        C  0.01607760  0.36231727  0.25960739    -0.11900
C870        C  0.01699255  0.39491697  0.26011913     0.02100
H871        H  0.43616251  0.37419253  0.24230282     0.15100
H872        H  0.03844648  0.36071483  0.26569037     0.15100
C873        C  0.04751603  0.42485912  0.26934199     0.36700
C874        C  0.42333926  0.30905079  0.23960148     0.36600
N875        N  0.07193979  0.44879077  0.27679099    -0.43600
N876        N  0.39609720  0.28505043  0.23511263    -0.43600
C877        C  0.99049011  0.08372817  0.25183039    -0.00100
C878        C  0.45917110  0.08711356  0.25224715    -0.11900
C879        C  0.45690926  0.11803058  0.25229584     0.02200
C880        C  0.98850295  0.14770888  0.24943166    -0.00100
C881        C  0.01961689  0.14795648  0.25551661    -0.11900
C882        C  0.02089646  0.11655149  0.25688564     0.02100
H883        H  0.43613698  0.06239540  0.25720372     0.15100
H884        H  0.04316377  0.17296399  0.25971642     0.15100
C885        C  0.05339836  0.11898528  0.26421309     0.36700
C886        C  0.42393664  0.11524679  0.25909883     0.36600
N887        N  0.07948863  0.12111129  0.27013736    -0.43600
N888        N  0.39737590  0.11269284  0.26454106    -0.43600
C889        C  0.48822551  0.48678356  0.14424697    -0.00100
C890        C  0.45918688  0.99022682  0.15498576    -0.11900
C891        C  0.45955640  0.99165772  0.17641790     0.02200
C892        C  0.48683430  0.48892344  0.18761984    -0.00100
C893        C  0.01443405  0.49784770  0.17715447    -0.11900
C894        C  0.01536772  0.49808892  0.15573128     0.02100
H895        H  0.43844613  0.99189151  0.14670866     0.15100
H896        H  0.03939827  0.50893947  0.18540314     0.15100
C897        C  0.04991541  0.51308944  0.14613730     0.36700
C898        C  0.43251094  0.99620461  0.18660222     0.36600
N899        N  0.07768064  0.52514925  0.13856395    -0.43600
N900        N  0.41089718  0.99997709  0.19472287    -0.43600
C901        C  0.99481738  0.99964877  0.35818213    -0.00100
C902        C  0.46839224  0.98412696  0.34470625    -0.11900
C903        C  0.46551626  0.98055187  0.32336864     0.02200
C904        C  0.99043628  0.99391893  0.31494170    -0.00100
C905        C  0.02590883  0.52629252  0.32025118    -0.11900
C906        C  0.02981449  0.53139115  0.34151797     0.02100
H907        H  0.44516947  0.96817013  0.35414037     0.15100
H908        H  0.04784039  0.54375939  0.31037920     0.15100
C909        C  0.06346003  0.55890007  0.34946108     0.36700
C910        C  0.43134292  0.95486673  0.31505594     0.36600
N911        N  0.09045695  0.58088136  0.35581826    -0.43600
N912        N  0.40387578  0.93427559  0.30850232    -0.43600
O913        O  0.46221418  0.93693967  0.25063742    -0.74300
O914        O  0.46372170  0.52587741  0.24952023    -0.74400
O915        O  0.45981370  0.97802352  0.22045294    -0.74400
O916        O  0.46405554  0.98344386  0.27889018    -0.74500
O917        O  0.02032804  0.50821246  0.27825055    -0.74400
O918        O  0.01422921  0.50089635  0.21975791    -0.74400
O919        O  0.01729862  0.54817359  0.24781419    -0.74300
O920        O  0.01712178  0.96021246  0.25323262    -0.74400
Ni921      Ni  0.45988716  0.97964005  0.24970773     1.25400
Ni922      Ni  0.01941014  0.50548445  0.24893612     1.25400
C923        C  0.98726021  0.93120782  0.25347527     0.87900
C924        C  0.98788910  0.54816521  0.24864105     0.87800
C925        C  0.48866055  0.99201717  0.21004753     0.87800
C926        C  0.99173177  0.49489743  0.28892323     0.88000
O927        O  0.01359921  0.70895840  0.24808334    -0.74300
O928        O  0.01334753  0.79667739  0.24948853    -0.74400
O929        O  0.01361942  0.75166409  0.27786822    -0.74400
O930        O  0.01390927  0.75379079  0.21954684    -0.74500
O931        O  0.46108308  0.73168992  0.22110645    -0.74400
O932        O  0.45883751  0.72820485  0.27978394    -0.74400
O933        O  0.45978848  0.77381272  0.25118292    -0.74300
O934        O  0.45989776  0.68615228  0.24962430    -0.74400
Ni935      Ni  0.01570091  0.75389817  0.24872079     1.25400
Ni936      Ni  0.45778334  0.72894515  0.25041547     1.25400
C937        C  0.98398767  0.67958774  0.24793308     0.87900
C938        C  0.98364510  0.79628811  0.24971913     0.87800
C939        C  0.98407062  0.73542594  0.28752372     0.87800
C940        C  0.98465857  0.73941120  0.20958269     0.88000
O941        O  0.23380027  0.53044798  0.24951677    -0.74300
O942        O  0.22917100  0.94263090  0.24686427    -0.74400
O943        O  0.23004056  0.98879275  0.27504012    -0.74400
O944        O  0.23488596  0.98737778  0.21656511    -0.74500
O945        O  0.29472116  0.51711014  0.22137196    -0.74400
O946        O  0.29260978  0.51767459  0.28007270    -0.74400
O947        O  0.28818400  0.96915405  0.24881681    -0.74300
O948        O  0.29286695  0.56087203  0.25034114    -0.74400
Ni949      Ni  0.23035852  0.98703941  0.24572671     1.25400
Ni950      Ni  0.29585803  0.51846421  0.25074808     1.25400
C951        C  0.26305408  0.56014925  0.24982110     0.87900
C952        C  0.25760724  0.94086823  0.24822885     0.87800
C953        C  0.25879395  0.00301393  0.28553267     0.87800
C954        C  0.26506603  0.00036349  0.20757943     0.88000
O955        O  0.28470322  0.71946368  0.25086669    -0.74300
O956        O  0.28380512  0.80661390  0.25211452    -0.74400
O957        O  0.28136288  0.76080292  0.28083979    -0.74400
O958        O  0.28671742  0.76510042  0.22202385    -0.74500
O959        O  0.22759460  0.73528304  0.22052688    -0.74400
O960        O  0.22229315  0.73091569  0.27894405    -0.74400
O961        O  0.22466780  0.77699420  0.25038063    -0.74300
O962        O  0.22568715  0.68945344  0.24912751    -0.74400
Ni963      Ni  0.28625909  0.76406502  0.25151320     1.25400
Ni964      Ni  0.22296939  0.73209440  0.24967427     1.25400
C965        C  0.25539060  0.68993139  0.24992549     0.87900
C966        C  0.25422388  0.80631662  0.25157063     0.87800
C967        C  0.25081988  0.74483031  0.28960169     0.87800
C968        C  0.25785868  0.75114891  0.21156526     0.88000
O969        O  0.44393391  0.98513771  0.41622154    -0.74300
O970        O  0.02728035  0.97430726  0.41953200    -0.74400
O971        O  0.48789030  0.98599866  0.44551714    -0.74400
O972        O  0.48630890  0.98188499  0.38705016    -0.74500
O973        O  0.02065810  0.54165348  0.38613756    -0.74400
O974        O  0.02643684  0.54536054  0.44492698    -0.74400
O975        O  0.06796331  0.54490211  0.41410392    -0.74300
O976        O  0.47929268  0.54293048  0.41586358    -0.74400
Ni977      Ni  0.48620076  0.98202489  0.41631631     1.25400
Ni978      Ni  0.02458689  0.54577234  0.41549144     1.25400
C979        C  0.45065492  0.51279395  0.41696143     0.87900
C980        C  0.06859417  0.51584134  0.41413930     0.87800
C981        C  0.01344315  0.51639845  0.45515714     0.87800
C982        C  0.00494855  0.51128540  0.37720871     0.88000
O983        O  0.46096065  0.76276610  0.41774669    -0.74300
O984        O  0.04513679  0.75506438  0.41570954    -0.74400
O985        O  0.00344859  0.75673712  0.38584763    -0.74400
O986        O  0.99995438  0.75436081  0.44425598    -0.74500
O987        O  0.47524630  0.70263570  0.44604115    -0.74400
O988        O  0.47577897  0.70522636  0.38739032    -0.74400
O989        O  0.01530745  0.69598260  0.41461190    -0.74300
O990        O  0.43158880  0.70366085  0.41702697    -0.74400
Ni991      Ni  0.00271389  0.75764841  0.41507703     1.25400
Ni992      Ni  0.47447706  0.70176831  0.41669674     1.25400
C993        C  0.43166674  0.73309177  0.41739045     0.87900
C994        C  0.04472865  0.72545527  0.41535426     0.87800
C995        C  0.98864359  0.72759129  0.37572879     0.87800
C996        C  0.98486380  0.72449454  0.45358755     0.88000
O997        O  0.19292920  0.98039109  0.41263008    -0.74300
O998        O  0.28342077  0.98596463  0.41351645    -0.74400
O999        O  0.23710164  0.98289389  0.44221909    -0.74400
O1000       O  0.23905244  0.98308865  0.38375073    -0.74500
O1001       O  0.27630188  0.54103059  0.38671344    -0.74400
O1002       O  0.27239538  0.54519621  0.44518778    -0.74400
O1003       O  0.31799041  0.54307825  0.41772151    -0.74300
O1004       O  0.23039588  0.54318954  0.41403617    -0.74400
Ni1005     Ni  0.23720366  0.98104027  0.41298809     1.25400
Ni1006     Ni  0.27530985  0.54524862  0.41588151     1.25400
C1007       C  0.20094916  0.51368754  0.41429060     0.87900
C1008       C  0.31773766  0.51357691  0.41856609     0.87800
C1009       C  0.25748935  0.51629769  0.45547339     0.87800
C1010       C  0.26142307  0.51069415  0.37781788     0.88000
O1011       O  0.18170069  0.70306867  0.41584007    -0.74300
O1012       O  0.27043607  0.70527870  0.41696896    -0.74400
O1013       O  0.22400440  0.70165375  0.44576509    -0.74400
O1014       O  0.22844688  0.70716768  0.38704552    -0.74500
O1015       O  0.25773920  0.76624998  0.38905558    -0.74400
O1016       O  0.25179004  0.76072091  0.44744725    -0.74400
O1017       O  0.29908563  0.76427067  0.41922521    -0.74300
O1018       O  0.21009263  0.76211658  0.41730677    -0.74400
Ni1019     Ni  0.22511423  0.70217775  0.41633326     1.25400
Ni1020     Ni  0.25566309  0.76544116  0.41833004     1.25400
C1021       C  0.18116893  0.73220361  0.41625155     0.87900
C1022       C  0.29942089  0.73502136  0.41838882     0.87800
C1023       C  0.23734027  0.73043347  0.45627704     0.87800
C1024       C  0.24421838  0.73769390  0.37839689     0.88000
O1025       O  0.45472536  0.93148163  0.08172973    -0.74300
O1026       O  0.46169177  0.52258978  0.08421070    -0.74400
O1027       O  0.45415010  0.97638609  0.05340240    -0.74400
O1028       O  0.45535639  0.97449262  0.11205984    -0.74500
O1029       O  0.01192265  0.49855915  0.11142341    -0.74400
O1030       O  0.01125245  0.49937104  0.05294411    -0.74400
O1031       O  0.01257277  0.54322417  0.08263143    -0.74300
O1032       O  0.01922437  0.95952934  0.08565862    -0.74400
Ni1033     Ni  0.45260428  0.97438491  0.08274502     1.25400
Ni1034     Ni  0.01367020  0.49993000  0.08217971     1.25400
C1035       C  0.48431949  0.93175732  0.08092268     0.87900
C1036       C  0.49113431  0.55202968  0.08519082     0.87800
C1037       C  0.48351426  0.99155335  0.04345056     0.87800
C1038       C  0.48525591  0.98850935  0.12143210     0.88000
O1039       O  0.02210295  0.79876851  0.08339279    -0.74300
O1040       O  0.02137782  0.71039886  0.08221927    -0.74400
O1041       O  0.02558616  0.75730666  0.05356194    -0.74400
O1042       O  0.01824078  0.75214650  0.11192967    -0.74500
O1043       O  0.46103494  0.72959404  0.11254579    -0.74400
O1044       O  0.46267235  0.72741519  0.05397303    -0.74400
O1045       O  0.46269952  0.68491436  0.08415238    -0.74300
O1046       O  0.46114176  0.77191717  0.08225832    -0.74400
Ni1047     Ni  0.02393386  0.75566405  0.08284730     1.25400
Ni1048     Ni  0.45976923  0.72733238  0.08323462     1.25400
C1049       C  0.99264626  0.79879725  0.08256230     0.87900
C1050       C  0.99165693  0.68130441  0.08095642     0.87800
C1051       C  0.99726459  0.74433657  0.04272751     0.87800
C1052       C  0.98763608  0.73690702  0.12056419     0.88000
O1053       O  0.23573823  0.53607441  0.08513020    -0.74300
O1054       O  0.24104669  0.95164494  0.07962202    -0.74400
O1055       O  0.24246252  0.99612980  0.10890753    -0.74400
O1056       O  0.24197851  0.99553742  0.05030350    -0.74500
O1057       O  0.29572136  0.52497073  0.05392302    -0.74400
O1058       O  0.29747362  0.52346321  0.11256783    -0.74400
O1059       O  0.30027171  0.98015775  0.07978702    -0.74300
O1060       O  0.29491303  0.56726999  0.08418207    -0.74400
Ni1061     Ni  0.24006480  0.99501439  0.07961240     1.25400
Ni1062     Ni  0.29869511  0.52530842  0.08324662     1.25400
C1063       C  0.26478600  0.56591914  0.08504090     0.87900
C1064       C  0.27028128  0.95121988  0.07997946     0.87800
C1065       C  0.27205284  0.01003913  0.11862610     0.87800
C1066       C  0.27153353  0.00867407  0.04058839     0.88000
O1067       O  0.23349975  0.74194468  0.11320075    -0.74300
O1068       O  0.23083057  0.74063316  0.05474743    -0.74400
O1069       O  0.23259475  0.69724328  0.08399488    -0.74400
O1070       O  0.23253120  0.78546101  0.08383660    -0.74500
O1071       O  0.29177406  0.81471957  0.08336497    -0.74400
O1072       O  0.29175332  0.72726504  0.08270511    -0.74400
O1073       O  0.28996292  0.77070782  0.05358335    -0.74300
O1074       O  0.29268764  0.77094097  0.11251680    -0.74400
Ni1075     Ni  0.23024917  0.74023044  0.08399618     1.25400
Ni1076     Ni  0.29364292  0.77193163  0.08301938     1.25400
C1077       C  0.26336708  0.75630565  0.12258118     0.87900
C1078       C  0.25977939  0.75593784  0.04443582     0.87800
C1079       C  0.26240721  0.69782942  0.08330457     0.87800
C1080       C  0.26231015  0.81465536  0.08329178     0.88000
O1081       O  0.42934383  0.97381038  0.91654124    -0.74300
O1082       O  0.01714156  0.56314527  0.91826864    -0.74400
O1083       O  0.48685855  0.52832532  0.88778699    -0.74400
O1084       O  0.48595662  0.52315941  0.94621869    -0.74500
O1085       O  0.01616811  0.99174913  0.94844123    -0.74400
O1086       O  0.01823376  0.99585252  0.88985167    -0.74400
O1087       O  0.04716888  0.53417799  0.91579923    -0.74300
O1088       O  0.46020625  0.94554218  0.91443852    -0.74400
Ni1089     Ni  0.48535495  0.52672658  0.91704638     1.25400
Ni1090     Ni  0.01822951  0.99274825  0.91911010     1.25400
C1091       C  0.43052731  0.94500979  0.91561597     0.87900
C1092       C  0.04665754  0.56329168  0.91729824     0.87800
C1093       C  0.00421986  0.01171298  0.88053886     0.87800
C1094       C  0.00010280  0.00491656  0.95850125     0.88000
O1095       O  0.07030124  0.78175680  0.91602282    -0.74300
O1096       O  0.47161310  0.69377077  0.91564394    -0.74400
O1097       O  0.02792219  0.73783950  0.88627342    -0.74400
O1098       O  0.02527485  0.73803627  0.94490720    -0.74500
O1099       O  0.48759435  0.76554839  0.94681542    -0.74400
O1100       O  0.48978217  0.76992136  0.88820348    -0.74400
O1101       O  0.44384390  0.72515893  0.91632760    -0.74300
O1102       O  0.04082720  0.81132864  0.91531516    -0.74400
Ni1103     Ni  0.02767160  0.73686888  0.91562481     1.25400
Ni1104     Ni  0.48791647  0.76906462  0.91754422     1.25400
C1105       C  0.07021133  0.81112679  0.91578648     0.87900
C1106       C  0.44295307  0.69531261  0.91558903     0.87800
C1107       C  0.01354201  0.75246528  0.87609098     0.87800
C1108       C  0.00976896  0.75255782  0.95420445     0.88000
O1109       O  0.23691789  0.93866344  0.91415478    -0.74300
O1110       O  0.31077265  0.53343232  0.91506031    -0.74400
O1111       O  0.28226633  0.98336338  0.94279639    -0.74400
O1112       O  0.28137143  0.97972292  0.88405087    -0.74500
O1113       O  0.23466792  0.51724201  0.88810950    -0.74400
O1114       O  0.23932137  0.51927712  0.94668128    -0.74400
O1115       O  0.28079753  0.56261706  0.91637268    -0.74300
O1116       O  0.20915667  0.96991898  0.91353020    -0.74400
Ni1117     Ni  0.28284194  0.98045404  0.91346996     1.25400
Ni1118     Ni  0.23597655  0.51930854  0.91742793     1.25400
C1119       C  0.20813840  0.94001876  0.91429243     0.87900
C1120       C  0.31024069  0.56253004  0.91566454     0.87800
C1121       C  0.26826550  0.99948236  0.95199304     0.87800
C1122       C  0.26705259  0.99458359  0.87401006     0.88000
O1123       O  0.27088422  0.81095943  0.91680937    -0.74300
O1124       O  0.18256037  0.72386553  0.91866466    -0.74400
O1125       O  0.22931588  0.76800770  0.94705837    -0.74400
O1126       O  0.22448435  0.76688175  0.88826556    -0.74500
O1127       O  0.25254108  0.73581569  0.88713884    -0.74400
O1128       O  0.25949969  0.73901923  0.94556502    -0.74400
O1129       O  0.21154273  0.69374144  0.91791899    -0.74300
O1130       O  0.30003509  0.78097040  0.91475638    -0.74400
Ni1131     Ni  0.22574544  0.76848871  0.91773616     1.25400
Ni1132     Ni  0.25688927  0.73627552  0.91629441     1.25400
C1133       C  0.29997949  0.81035621  0.91548479     0.87900
C1134       C  0.18237229  0.69433776  0.91871311     0.87800
C1135       C  0.24565377  0.75407699  0.95596159     0.87800
C1136       C  0.23757569  0.75088339  0.87801114     0.88000
O1137       O  0.48299024  0.97816021  0.61129875    -0.74300
O1138       O  0.48691949  0.98162801  0.55249806    -0.74400
O1139       O  0.02458422  0.97185740  0.58706891    -0.74400
O1140       O  0.44117905  0.97941113  0.58110659    -0.74500
O1141       O  0.47950574  0.54656847  0.58036149    -0.74400
O1142       O  0.06470517  0.54229111  0.58607066    -0.74400
O1143       O  0.02543308  0.54301384  0.55419105    -0.74300
O1144       O  0.01724858  0.54330781  0.61263577    -0.74400
Ni1145     Ni  0.48407774  0.97770367  0.58183497     1.25400
Ni1146     Ni  0.02249183  0.54528297  0.58342350     1.25400
C1147       C  0.00046548  0.51376625  0.62220773     0.87900
C1148       C  0.01128446  0.51346450  0.54439155     0.87800
C1149       C  0.06377076  0.51243478  0.58668208     0.87800
C1150       C  0.44962647  0.51766477  0.57940795     0.88000
O1151       O  0.46950882  0.76879572  0.58288738    -0.74300
O1152       O  0.05359733  0.76097314  0.58082292    -0.74400
O1153       O  0.00891813  0.75984064  0.55159808    -0.74400
O1154       O  0.01112177  0.76371248  0.60998735    -0.74500
O1155       O  0.48389376  0.71130724  0.61356837    -0.74400
O1156       O  0.48292920  0.70775022  0.55492534    -0.74400
O1157       O  0.02351157  0.70190932  0.58173671    -0.74300
O1158       O  0.43987913  0.70975169  0.58398549    -0.74400
Ni1159     Ni  0.01118279  0.76383205  0.58075617     1.25400
Ni1160     Ni  0.48249489  0.70735286  0.58427425     1.25400
C1161       C  0.44011701  0.73925403  0.58336772     0.87900
C1162       C  0.05302976  0.73128156  0.58159836     0.87800
C1163       C  0.99252925  0.72983125  0.54241154     0.87800
C1164       C  0.99662802  0.73486819  0.62028607     0.88000
O1165       O  0.18554952  0.96752570  0.58088647    -0.74300
O1166       O  0.27481263  0.97055052  0.57693848    -0.74400
O1167       O  0.23209748  0.96626943  0.60811959    -0.74400
O1168       O  0.22872554  0.97183628  0.54956235    -0.74500
O1169       O  0.26803411  0.54313357  0.55436773    -0.74400
O1170       O  0.27036878  0.54085178  0.61297718    -0.74400
O1171       O  0.31399618  0.54335363  0.58220944    -0.74300
O1172       O  0.22476664  0.54071028  0.58506573    -0.74400
Ni1173     Ni  0.22921104  0.96690292  0.57877384     1.25400
Ni1174     Ni  0.27036790  0.54415415  0.58370507     1.25400
C1175       C  0.18501702  0.99661560  0.58241847     0.87900
C1176       C  0.30369883  0.00048430  0.57765955     0.87800
C1177       C  0.24683515  0.99507153  0.61861518     0.87800
C1178       C  0.24282171  0.00227631  0.54086075     0.88000
O1179       O  0.18986436  0.70831457  0.58605494    -0.74300
O1180       O  0.27903577  0.71154611  0.58340143    -0.74400
O1181       O  0.23802287  0.71341529  0.61401236    -0.74400
O1182       O  0.23091741  0.70658027  0.55543938    -0.74500
O1183       O  0.25898048  0.76561633  0.55349982    -0.74400
O1184       O  0.26538449  0.77243472  0.61192387    -0.74400
O1185       O  0.30717908  0.77052176  0.58156834    -0.74300
O1186       O  0.21765405  0.76726244  0.58381133    -0.74400
Ni1187     Ni  0.23352314  0.70786874  0.58480589     1.25400
Ni1188     Ni  0.26337477  0.77107402  0.58261971     1.25400
C1189       C  0.18897022  0.73725405  0.58529885     0.87900
C1190       C  0.30787549  0.74145066  0.58214873     0.87800
C1191       C  0.25246758  0.74403087  0.62261284     0.87800
C1192       C  0.24328124  0.73506867  0.54483956     0.88000
O1193       O  0.04490948  0.53623984  0.74975501    -0.74300
O1194       O  0.46025117  0.94728725  0.75077611    -0.74400
O1195       O  0.01251640  0.99224761  0.72319011    -0.74400
O1196       O  0.01810406  0.99649694  0.78158671    -0.74500
O1197       O  0.48515546  0.53022976  0.77893031    -0.74400
O1198       O  0.47901643  0.52728967  0.72033498    -0.74400
O1199       O  0.42916275  0.97523541  0.74939670    -0.74300
O1200       O  0.01605889  0.56651243  0.74994268    -0.74400
Ni1201     Ni  0.01647765  0.99352092  0.75234068     1.25400
Ni1202     Ni  0.48099213  0.52979672  0.74968135     1.25400
C1203       C  0.04518566  0.56579395  0.74991056     0.87900
C1204       C  0.43040026  0.94648016  0.75041865     0.87800
C1205       C  0.99601998  0.00551548  0.71386348     0.87800
C1206       C  0.00324585  0.01085659  0.79168881     0.88000
O1207       O  0.03789036  0.80530784  0.74638943    -0.74300
O1208       O  0.43821340  0.72205779  0.75025536    -0.74400
O1209       O  0.48293674  0.76731379  0.77894282    -0.74400
O1210       O  0.48259074  0.76324727  0.72023549    -0.74500
O1211       O  0.02187313  0.72930877  0.71871664    -0.74400
O1212       O  0.02490372  0.73464747  0.77730891    -0.74400
O1213       O  0.46665062  0.69142604  0.75141675    -0.74300
O1214       O  0.06739450  0.77577854  0.74676510    -0.74400
Ni1215     Ni  0.48174843  0.76645117  0.74953872     1.25400
Ni1216     Ni  0.02448614  0.73097357  0.74802636     1.25400
C1217       C  0.06725004  0.80513770  0.74630962     0.87900
C1218       C  0.43766813  0.69238196  0.75116268     0.87800
C1219       C  0.01061336  0.75026596  0.78676469     0.87800
C1220       C  0.00633540  0.74298799  0.70875671     0.88000
O1221       O  0.20232106  0.96566692  0.74747113    -0.74300
O1222       O  0.27192168  0.56266863  0.75064735    -0.74400
O1223       O  0.22938640  0.52033525  0.72036265    -0.74400
O1224       O  0.22654036  0.51748883  0.77909036    -0.74500
O1225       O  0.27764854  0.98016125  0.77467700    -0.74400
O1226       O  0.27397366  0.98164930  0.71580474    -0.74400
O1227       O  0.30125266  0.53286908  0.75069724    -0.74300
O1228       O  0.23234648  0.93672394  0.74545868    -0.74400
Ni1229     Ni  0.22676953  0.51993449  0.74972670     1.25400
Ni1230     Ni  0.27701284  0.97983995  0.74518150     1.25400
C1231       C  0.20283478  0.93651300  0.74649871     0.87900
C1232       C  0.30119841  0.56228894  0.75082114     0.87800
C1233       C  0.25796084  0.99621201  0.70718099     0.87800
C1234       C  0.26354703  0.99497711  0.78515367     0.88000
O1235       O  0.25381403  0.73702428  0.78035614    -0.74300
O1236       O  0.25921152  0.73590206  0.72192870    -0.74400
O1237       O  0.30092992  0.78021379  0.75184543    -0.74400
O1238       O  0.21174748  0.69311678  0.75041839    -0.74500
O1239       O  0.18350836  0.72390811  0.74867981    -0.74400
O1240       O  0.27196970  0.81025212  0.74969960    -0.74400
O1241       O  0.23041280  0.76606858  0.71984554    -0.74300
O1242       O  0.22568861  0.76796746  0.77858653    -0.74400
Ni1243     Ni  0.25743876  0.73545510  0.75121308     1.25400
Ni1244     Ni  0.22686863  0.76810438  0.74912601     1.25400
C1245       C  0.23906662  0.75273122  0.78915843     0.87900
C1246       C  0.24597819  0.75100628  0.71116681     0.87800
C1247       C  0.30106714  0.80970635  0.75088588     0.87800
C1248       C  0.18284800  0.69421204  0.74935616     0.88000
C1249       C  0.40292963  0.65890528  0.75164144    -0.00100
C1250       C  0.37274936  0.65925900  0.74426209    -0.11900
C1251       C  0.33937322  0.62843257  0.74396531     0.02200
C1252       C  0.33560770  0.59610213  0.75118676    -0.00100
C1253       C  0.36571963  0.59581589  0.75873807    -0.11900
C1254       C  0.39904801  0.62669446  0.75915864     0.02100
H1255       H  0.37525235  0.68368547  0.73836085     0.15100
H1256       H  0.36320122  0.57136343  0.76460824     0.15100
C1257       C  0.42831407  0.62449651  0.76803485     0.36700
C1258       C  0.30994376  0.63087398  0.73555553     0.36600
N1259       N  0.45166071  0.62264132  0.77521688    -0.43600
N1260       N  0.28649616  0.63308462  0.72884441    -0.43600
C1261       C  0.10161979  0.83911389  0.74596676    -0.00100
C1262       C  0.13330036  0.83791863  0.74743946    -0.11900
C1263       C  0.16650395  0.86891240  0.74768077     0.02200
C1264       C  0.16863643  0.90240858  0.74638536    -0.00100
C1265       C  0.13698271  0.90357901  0.74480771    -0.11900
C1266       C  0.10381772  0.87263263  0.74456674    -0.07500
H1267       H  0.13229904  0.81257097  0.74858099     0.15100
H1268       H  0.13796214  0.92891775  0.74366096     0.15100
C1269       C  0.07287442  0.87666378  0.74278429     0.36700
C1270       C  0.19753708  0.86503340  0.74954184     0.36600
N1271       N  0.04825094  0.88016434  0.74135930    -0.43600
N1272       N  0.22223824  0.86166947  0.75102597    -0.43600
C1273       C  0.33486947  0.84403179  0.75122983    -0.00100
C1274       C  0.33356260  0.87461816  0.75676697    -0.11900
C1275       C  0.36403782  0.90812599  0.75668684     0.02200
C1276       C  0.39710604  0.91166448  0.75103037    -0.00100
C1277       C  0.39853271  0.88101188  0.74574642    -0.11900
C1278       C  0.36791658  0.84746754  0.74568700     0.02100
H1279       H  0.30848552  0.87244902  0.76125899     0.15100
H1280       H  0.42361095  0.88325077  0.74120408     0.15100
C1281       C  0.37125918  0.81754877  0.73905097     0.36700
C1282       C  0.36024019  0.93802070  0.76281984     0.36600
N1283       N  0.37411508  0.79371433  0.73365935    -0.43600
N1284       N  0.35690587  0.96180409  0.76769936    -0.43600
C1285       C  0.07994045  0.59921119  0.74976228    -0.00100
C1286       C  0.11008760  0.59773383  0.74327862    -0.11900
C1287       C  0.14376071  0.62808022  0.74290310     0.02200
C1288       C  0.14792752  0.66104111  0.74921349    -0.00100
C1289       C  0.11777212  0.66261769  0.75556267    -0.11900
C1290       C  0.08405875  0.63225718  0.75593152     0.02100
H1291       H  0.10738975  0.57272365  0.73821579     0.15100
H1292       H  0.12054270  0.68767973  0.76058490     0.15100
C1293       C  0.05467705  0.63597186  0.76329982     0.36700
C1294       C  0.17311254  0.62450708  0.73534073     0.36600
N1295       N  0.03130857  0.63919419  0.76923918    -0.43600
N1296       N  0.19649865  0.62146399  0.72924221    -0.43600
C1297       C  0.25302511  0.74670253  0.64522474    -0.00100
C1298       C  0.24674088  0.77233600  0.65432259    -0.11900
C1299       C  0.24449818  0.77449722  0.67564896     0.02200
C1300       C  0.24872965  0.75061229  0.68842086    -0.00100
C1301       C  0.25625644  0.72574659  0.67921818    -0.11900
C1302       C  0.25845282  0.72364224  0.65788125     0.02100
H1303       H  0.24282179  0.79036242  0.64468952     0.15100
H1304       H  0.26020334  0.70758377  0.68868970     0.15100
C1305       C  0.26758066  0.69848186  0.64941941     0.36700
C1306       C  0.23844504  0.80193933  0.68381434     0.36600
N1307       N  0.27511394  0.67850242  0.64262239    -0.43600
N1308       N  0.23361783  0.82398565  0.69028995    -0.43600
C1309       C  0.24898336  0.99394659  0.64117518    -0.00100
C1310       C  0.24917889  0.53514359  0.65507655    -0.11900
C1311       C  0.24514249  0.53421164  0.67639432     0.02200
C1312       C  0.25527383  0.99627573  0.68444268    -0.00100
C1313       C  0.26028269  0.97176551  0.67282836    -0.11900
C1314       C  0.25709956  0.97033634  0.65139486     0.02100
H1315       H  0.24728114  0.55532721  0.64637265     0.15100
H1316       H  0.26655837  0.95350539  0.68048436     0.15100
C1317       C  0.26384960  0.94554178  0.64024780     0.36700
C1318       C  0.23892990  0.56073477  0.68580164     0.36600
N1319       N  0.26938858  0.92575951  0.63132150    -0.43600
N1320       N  0.23364566  0.58189950  0.69318132    -0.43600
C1321       C  0.34216438  0.74177960  0.58191255    -0.00100
C1322       C  0.34235555  0.71135197  0.58885392    -0.11900
C1323       C  0.37361761  0.70976148  0.58943272     0.02200
C1324       C  0.40604796  0.73933030  0.58303587    -0.00100
C1325       C  0.40591577  0.76976079  0.57598016    -0.11900
C1326       C  0.37445814  0.77119468  0.57522689     0.02100
H1327       H  0.31790899  0.68857776  0.59415235     0.15100
H1328       H  0.43044215  0.79245530  0.57070500     0.15100
C1329       C  0.37622963  0.80276096  0.56690898     0.36700
C1330       C  0.37127408  0.67753951  0.59711029     0.36600
N1331       N  0.37784149  0.82808943  0.56015776    -0.43600
N1332       N  0.36914983  0.65159588  0.60320399    -0.43600
C1333       C  0.08718650  0.73150134  0.58292375    -0.00100
C1334       C  0.11737959  0.76283710  0.58957131    -0.11900
C1335       C  0.15049614  0.76509689  0.59110994     0.02200
C1336       C  0.15414774  0.73566648  0.58553878    -0.00100
C1337       C  0.12381679  0.70398138  0.57945849    -0.11900
C1338       C  0.09053766  0.70153684  0.57819609     0.02100
H1339       H  0.11511722  0.78572976  0.59389387     0.15100
H1340       H  0.12614521  0.68107816  0.57525624     0.15100
C1341       C  0.06079286  0.66814872  0.57155508     0.36700
C1342       C  0.17977836  0.79758540  0.59912888     0.36600
N1343       N  0.03710912  0.64125116  0.56629901    -0.43600
N1344       N  0.20311155  0.82358453  0.60565576    -0.43600
C1345       C  0.99801457  0.73665638  0.64288588    -0.00100
C1346       C  0.00189773  0.71102814  0.65372027    -0.11900
C1347       C  0.00497986  0.71255762  0.67510127     0.02200
C1348       C  0.00384011  0.74011888  0.68609216    -0.00100
C1349       C  0.49714433  0.77235966  0.67719883    -0.11900
C1350       C  0.49779872  0.77197222  0.65576822     0.02100
H1351       H  0.00308420  0.68998190  0.64541900     0.15100
H1352       H  0.49812378  0.79484417  0.68507290     0.15100
C1353       C  0.49794474  0.80105283  0.64505950     0.36700
C1354       C  0.00845046  0.68496119  0.68519095     0.36600
N1355       N  0.49794489  0.82431458  0.63651252    -0.43600
N1356       N  0.01130472  0.66276207  0.69310980    -0.43600
C1357       C  0.41597769  0.51860437  0.57834561    -0.00100
C1358       C  0.37575276  0.97487330  0.57573027    -0.11900
C1359       C  0.34219896  0.97171901  0.57457382     0.02200
C1360       C  0.33863394  0.00204993  0.57747383    -0.00100
C1361       C  0.38031391  0.54658977  0.58476883    -0.11900
C1362       C  0.41347060  0.54858216  0.58439703     0.02100
H1363       H  0.37780856  0.95124599  0.57347266     0.15100
H1364       H  0.37877639  0.56951624  0.58994340     0.15100
C1365       C  0.44396805  0.58144068  0.59099299     0.36700
C1366       C  0.31231007  0.93691533  0.57028859     0.36600
N1367       N  0.46826847  0.60790190  0.59623273    -0.43600
N1368       N  0.28854556  0.90893860  0.56684236    -0.43600
C1369       C  0.09730966  0.51154956  0.58773982    -0.00100
C1370       C  0.08758626  0.97042486  0.57754574    -0.11900
C1371       C  0.11867719  0.96847316  0.57607076     0.02200
C1372       C  0.15080467  0.99611320  0.58425241    -0.00100
C1373       C  0.16025154  0.53828222  0.59564570    -0.11900
C1374       C  0.12860426  0.53930363  0.59660560     0.02100
H1375       H  0.06330249  0.94952186  0.57072570     0.15100
H1376       H  0.18412350  0.55978707  0.60246177     0.15100
C1377       C  0.12891286  0.56859743  0.60731140     0.36700
C1378       C  0.11678350  0.93839728  0.56543985     0.36600
N1379       N  0.12917786  0.59200647  0.61596847    -0.43600
N1380       N  0.11490312  0.91409531  0.55696606    -0.43600
C1381       C  0.99653102  0.51319763  0.64486698    -0.00100
C1382       C  0.99041849  0.97485587  0.65873860    -0.11900
C1383       C  0.99026408  0.97430530  0.68017005     0.02200
C1384       C  0.98871068  0.50889421  0.68800609    -0.00100
C1385       C  0.49485679  0.54015299  0.67713394    -0.11900
C1386       C  0.49716629  0.54193569  0.65571205     0.02100
H1387       H  0.98774702  0.95202886  0.65039797     0.15100
H1388       H  0.49773077  0.56283390  0.68573989     0.15100
C1389       C  0.50133364  0.57352124  0.64593459     0.36700
C1390       C  0.98504841  0.94257438  0.69030423     0.36600
N1391       N  0.50457621  0.59886887  0.63819929    -0.43600
N1392       N  0.98076364  0.91708901  0.69838376    -0.43600
C1393       C  0.23602005  0.75024873  0.85528245    -0.00100
C1394       C  0.23779092  0.77931464  0.84486247    -0.11900
C1395       C  0.23870137  0.78081983  0.82336778     0.02200
C1396       C  0.23728643  0.75252585  0.81186879    -0.00100
C1397       C  0.23488569  0.72324182  0.82230768    -0.11900
C1398       C  0.23417207  0.72179846  0.84372586     0.02100
H1399       H  0.23965484  0.80150709  0.85354132     0.15100
H1400       H  0.23334581  0.70114643  0.81366960     0.15100
C1401       C  0.23058946  0.69029711  0.85333047     0.36700
C1402       C  0.24322572  0.81258070  0.81362993     0.36600
N1403       N  0.22769481  0.66502470  0.86098131    -0.43600
N1404       N  0.24707779  0.83812845  0.80583955    -0.43600
C1405       C  0.26673688  0.99398309  0.85126287    -0.00100
C1406       C  0.23284720  0.52083369  0.84531032    -0.11900
C1407       C  0.23044262  0.52152674  0.82392145     0.02200
C1408       C  0.26533003  0.99552859  0.80786483    -0.00100
C1409       C  0.26770033  0.96842110  0.81808541    -0.11900
C1410       C  0.26812429  0.96723832  0.83956319     0.02100
H1411       H  0.22461262  0.53637164  0.85443240     0.15100
H1412       H  0.26831265  0.94752411  0.80928120     0.15100
C1413       C  0.26825930  0.93737325  0.84904774     0.36700
C1414       C  0.21734108  0.54336733  0.81534654     0.36600
N1415       N  0.26817203  0.91328783  0.85657845    -0.43600
N1416       N  0.20685659  0.56096428  0.80860303    -0.43600
C1417       C  0.40857246  0.66183603  0.91520642    -0.00100
C1418       C  0.40678128  0.63193933  0.92445337    -0.11900
C1419       C  0.37512817  0.59948628  0.92482234     0.02200
C1420       C  0.34421792  0.59643387  0.91572368    -0.00100
C1421       C  0.34590605  0.62632562  0.90647110    -0.11900
C1422       C  0.37778921  0.65883416  0.90598201     0.02100
H1423       H  0.43017292  0.63402708  0.93174953     0.15100
H1424       H  0.32243779  0.62410012  0.89920999     0.15100
C1425       C  0.37847671  0.68799547  0.89507282     0.36700
C1426       C  0.37508064  0.57025675  0.93531307     0.36600
N1427       N  0.37900790  0.71124909  0.88620973    -0.43600
N1428       N  0.37515596  0.54690794  0.94370803    -0.43600
C1429       C  0.10488574  0.84485135  0.91601350    -0.00100
C1430       C  0.13577406  0.84305392  0.91991283    -0.11900
C1431       C  0.16947476  0.87333710  0.91960325     0.02200
C1432       C  0.17306441  0.90682275  0.91526254    -0.00100
C1433       C  0.14213432  0.90877831  0.91176878    -0.11900
C1434       C  0.10836313  0.87841619  0.91209503     0.02100
H1435       H  0.13376669  0.81770949  0.92325360     0.15100
H1436       H  0.14422297  0.93417344  0.90848803     0.15100
C1437       C  0.07817311  0.88285342  0.90793590     0.36700
C1438       C  0.19951717  0.86878168  0.92406087     0.36600
N1439       N  0.05414080  0.88666935  0.90460447    -0.43600
N1440       N  0.22341451  0.86486750  0.92763961    -0.43600
C1441       C  0.01420856  0.75238969  0.85321664    -0.00100
C1442       C  0.00101277  0.77149297  0.84263333    -0.11900
C1443       C  0.99998345  0.77178974  0.82118301     0.02200
C1444       C  0.01201914  0.75219588  0.80960688    -0.00100
C1445       C  0.50723163  0.73094201  0.82209274    -0.11900
C1446       C  0.50913291  0.73057683  0.84343233     0.02100
H1447       H  0.99140858  0.78650408  0.85113266     0.15100
H1448       H  0.51293199  0.71308419  0.81336892     0.15100
C1449       C  0.51797579  0.70567428  0.85242441     0.36700
C1450       C  0.98682375  0.79295322  0.81173390     0.36600
N1451       N  0.52504461  0.68563122  0.85949681    -0.43600
N1452       N  0.97635272  0.81004754  0.80426815    -0.43600
C1453       C  0.33385491  0.84429716  0.91534772    -0.00100
C1454       C  0.33634091  0.87237194  0.92726691    -0.11900
C1455       C  0.36770198  0.90516871  0.92785183     0.02200
C1456       C  0.39718528  0.91055698  0.91594727    -0.00100
C1457       C  0.39491893  0.88233463  0.90424276    -0.11900
C1458       C  0.36361568  0.84933772  0.90385128     0.02100
H1459       H  0.31387133  0.86844388  0.93653163     0.15100
H1460       H  0.41748929  0.88624593  0.89509276     0.15100
C1461       C  0.36240041  0.82169387  0.89094059     0.36700
C1462       C  0.36936655  0.93206541  0.94162125     0.36600
N1463       N  0.36145444  0.79957066  0.88058359    -0.43600
N1464       N  0.37059497  0.95339768  0.95278513    -0.43600
C1465       C  0.08083091  0.59734697  0.91809305    -0.00100
C1466       C  0.11150946  0.59682108  0.92431579    -0.11900
C1467       C  0.14464349  0.62791844  0.92507817     0.02200
C1468       C  0.14777160  0.66064182  0.91923532    -0.00100
C1469       C  0.11696082  0.66125603  0.91337456    -0.11900
C1470       C  0.08376945  0.63020882  0.91278194     0.02100
H1471       H  0.10961236  0.57197083  0.92886215     0.15100
H1472       H  0.11879676  0.68608382  0.90884547     0.15100
C1473       C  0.05362535  0.63306686  0.90608129     0.36700
C1474       C  0.17453781  0.62530644  0.93251504     0.36600
N1475       N  0.02957130  0.63556404  0.90077203    -0.43600
N1476       N  0.19838619  0.62310379  0.93855085    -0.43600
C1477       C  0.00502311  0.01284336  0.85781204    -0.00100
C1478       C  0.51721334  0.01291553  0.84387997    -0.11900
C1479       C  0.51854525  0.01393180  0.82246040     0.02200
C1480       C  0.00441047  0.01123296  0.81440002    -0.00100
C1481       C  0.98257840  0.53315670  0.82204100    -0.11900
C1482       C  0.98329699  0.53429661  0.84351811     0.02100
H1483       H  0.53968903  0.01511037  0.85235194     0.15100
H1484       H  0.98103550  0.55383635  0.81366732     0.15100
C1485       C  0.98220501  0.56338762  0.85355722     0.36700
C1486       C  0.55078163  0.01963668  0.81256293     0.36600
N1487       N  0.98127962  0.58673592  0.86151917    -0.43600
N1488       N  0.57671047  0.02446114  0.80465944    -0.43600
C1489       C  0.24920096  0.75564631  0.97855768    -0.00100
C1490       C  0.28115972  0.76116486  0.98720315    -0.11900
C1491       C  0.28577520  0.76225111  0.00850899     0.02200
C1492       C  0.25755441  0.75678402  0.02169331    -0.00100
C1493       C  0.22570326  0.75162179  0.01292593    -0.11900
C1494       C  0.22142796  0.75130257  0.99165213     0.02100
H1495       H  0.30281374  0.76495889  0.97723385     0.15100
H1496       H  0.20387892  0.74784463  0.02272929     0.15100
C1497       C  0.18776071  0.74509073  0.98373278     0.36700
C1498       C  0.31957083  0.76852000  0.01621295     0.36600
N1499       N  0.16078249  0.74012816  0.97740779    -0.43600
N1500       N  0.34680982  0.77380937  0.02228144    -0.43600
C1501       C  0.26899493  0.91663281  0.08073908    -0.00100
C1502       C  0.23992555  0.88689177  0.07175722    -0.11900
C1503       C  0.23698138  0.85337745  0.07241327     0.02200
C1504       C  0.26332634  0.84909941  0.08248554    -0.00100
C1505       C  0.29244554  0.87886238  0.09137950    -0.11900
C1506       C  0.29549839  0.91237320  0.09063979     0.02100
H1507       H  0.21964239  0.88992364  0.06388480     0.15100
H1508       H  0.31281887  0.87588392  0.09918556     0.15100
C1509       C  0.32538652  0.94144154  0.10089234     0.36700
C1510       C  0.20763890  0.82440014  0.06176038     0.36600
N1511       N  0.34932323  0.96464865  0.10915433    -0.43600
N1512       N  0.18421625  0.80127335  0.05312200    -0.43600
C1513       C  0.26378756  0.59945763  0.08530113    -0.00100
C1514       C  0.29146432  0.62927683  0.07563702    -0.11900
C1515       C  0.29148009  0.66135792  0.07467602     0.02200
C1516       C  0.26317737  0.66415092  0.08351663    -0.00100
C1517       C  0.23560608  0.63440827  0.09336480    -0.11900
C1518       C  0.23584815  0.60237149  0.09452663     0.02100
H1519       H  0.31301499  0.62739614  0.06843908     0.15100
H1520       H  0.21419015  0.63641779  0.10063952     0.15100
C1521       C  0.20808196  0.57365559  0.10615889     0.36700
C1522       C  0.32050648  0.69051278  0.06398339     0.36600
N1523       N  0.18596090  0.55079481  0.11562825    -0.43600
N1524       N  0.34386568  0.71383570  0.05546784    -0.43600
C1525       C  0.26815850  0.00075839  0.97468033    -0.00100
C1526       C  0.29562882  0.99994809  0.98551596    -0.11900
C1527       C  0.29726033  0.00235340  0.00694299     0.02200
C1528       C  0.27112960  0.00596799  0.01794784    -0.00100
C1529       C  0.23195800  0.50076515  0.01218857    -0.11900
C1530       C  0.22863376  0.49948495  0.99083603     0.02100
H1531       H  0.31605755  0.99762430  0.97722448     0.15100
H1532       H  0.20871855  0.49420322  0.02145663     0.15100
C1533       C  0.19416133  0.48869336  0.98209738     0.36700
C1534       C  0.32505544  0.99933395  0.01720715     0.36600
N1535       N  0.16655545  0.48003063  0.97508072    -0.43600
N1536       N  0.34718133  0.99666974  0.02542382    -0.43600
C1537       C  0.00785318  0.75187294  0.97690843    -0.00100
C1538       C  0.47148494  0.74862810  0.98880329    -0.11900
C1539       C  0.46837256  0.74656986  0.01016567     0.02200
C1540       C  0.00038915  0.74737766  0.02009980    -0.00100
C1541       C  0.03004098  0.74858927  0.01060122    -0.11900
C1542       C  0.03399723  0.75082040  0.98926166     0.02100
H1543       H  0.45217267  0.75182009  0.97995449     0.15100
H1544       H  0.05014562  0.74747838  0.01987335     0.15100
C1545       C  0.06573665  0.75315915  0.98059081     0.36700
C1546       C  0.43998023  0.74986260  0.01954334     0.36600
N1547       N  0.09121635  0.75515901  0.97363823    -0.43600
N1548       N  0.41721063  0.75249401  0.02702093    -0.43600
C1549       C  0.98944359  0.89628703  0.08490599    -0.00100
C1550       C  0.51809464  0.89967233  0.08214271    -0.11900
C1551       C  0.52083423  0.86903965  0.08227537     0.02200
C1552       C  0.99245132  0.83275917  0.08322142    -0.00100
C1553       C  0.96213574  0.83270667  0.09085947    -0.11900
C1554       C  0.96039153  0.86394913  0.09184500     0.02100
H1555       H  0.54222339  0.92518281  0.08368188     0.15100
H1556       H  0.93977668  0.80817047  0.09639822     0.15100
C1557       C  0.92892034  0.86194561  0.10071176     0.36700
C1558       C  0.55609653  0.87369286  0.08382221     0.36600
N1559       N  0.90363895  0.86009826  0.10787390    -0.43600
N1560       N  0.58446865  0.87770907  0.08491752    -0.43600
C1561       C  0.98480966  0.57867141  0.08278025    -0.00100
C1562       C  0.01755665  0.60938004  0.07861509    -0.11900
C1563       C  0.02073122  0.64299552  0.07797183     0.02200
C1564       C  0.99046493  0.64654816  0.08132928    -0.00100
C1565       C  0.46387206  0.62189994  0.09339638    -0.11900
C1566       C  0.46280625  0.58926365  0.09403784     0.02100
H1567       H  0.04102098  0.60726094  0.07571123     0.15100
H1568       H  0.44193759  0.62396225  0.09987158     0.15100
C1569       C  0.43300526  0.56018876  0.10416617     0.36700
C1570       C  0.05539887  0.67299635  0.07359254     0.36600
N1571       N  0.40910901  0.53733199  0.11257913    -0.43600
N1572       N  0.08330985  0.69687923  0.07016461    -0.43600
C1573       C  0.99278151  0.99473375  0.02434656    -0.00100
C1574       C  0.02523817  0.00512927  0.01426738    -0.11900
C1575       C  0.02826446  0.00890670  0.99293098     0.02200
C1576       C  0.99845002  0.00233552  0.98111073    -0.00100
C1577       C  0.47176138  0.50593361  0.98829340    -0.11900
C1578       C  0.46943913  0.50397271  0.00968398     0.02100
H1579       H  0.04855248  0.01046364  0.02305663     0.15100
H1580       H  0.45105594  0.50714393  0.97969915     0.15100
C1581       C  0.44007347  0.50508463  0.01939249     0.36700
C1582       C  0.06267598  0.02109657  0.98364221     0.36600
N1583       N  0.41655627  0.50604228  0.02713006    -0.43600
N1584       N  0.09026976  0.03105193  0.97619460    -0.43600
C1585       C  0.23635514  0.72930524  0.47895973    -0.00100
C1586       C  0.23370895  0.75605429  0.48954608    -0.11900
C1587       C  0.23489288  0.75781782  0.51094950     0.02200
C1588       C  0.23946955  0.73275834  0.52225977    -0.00100
C1589       C  0.24092202  0.70526925  0.51174464    -0.11900
C1590       C  0.23944191  0.70333939  0.49027959     0.02100
H1591       H  0.23051845  0.77566452  0.48104221     0.15100
H1592       H  0.24427311  0.68580082  0.52028766     0.15100
C1593       C  0.24302419  0.67557308  0.48032905     0.36700
C1594       C  0.23000331  0.78484149  0.52086939     0.36600
N1595       N  0.24593681  0.65333306  0.47237059    -0.43600
N1596       N  0.22585724  0.80634493  0.52880692    -0.43600
C1597       C  0.25620168  0.51716568  0.47818158    -0.00100
C1598       C  0.22083682  0.98064260  0.48420950    -0.11900
C1599       C  0.21807971  0.97727469  0.50555333     0.02200
C1600       C  0.24333776  0.00485086  0.51814425    -0.00100
C1601       C  0.27805799  0.54550268  0.51139076    -0.11900
C1602       C  0.28013311  0.54698735  0.48995978     0.02100
H1603       H  0.20112471  0.95927106  0.47479013     0.15100
H1604       H  0.29700497  0.56836567  0.52020840     0.15100
C1605       C  0.30817113  0.57887866  0.48068616     0.36700
C1606       C  0.18856521  0.94547052  0.51393359     0.36600
N1607       N  0.33074936  0.60443993  0.47332790    -0.43600
N1608       N  0.16484702  0.91983781  0.52046920    -0.43600
C1609       C  0.98974026  0.72859111  0.51970455    -0.00100
C1610       C  0.48840496  0.70465861  0.51181229    -0.11900
C1611       C  0.48626259  0.70236858  0.49040274     0.02200
C1612       C  0.98492732  0.72433068  0.47634596    -0.00100
C1613       C  0.99236641  0.75569247  0.48668163    -0.11900
C1614       C  0.99469656  0.75810508  0.50803359     0.02100
H1615       H  0.48551196  0.68212486  0.52047256     0.15100
H1616       H  0.99635032  0.77866006  0.47804135     0.15100
C1617       C  0.00137996  0.79108661  0.51734641     0.36700
C1618       C  0.48093062  0.67003979  0.48086239     0.36600
N1619       N  0.00672051  0.81756320  0.52470615    -0.43600
N1620       N  0.47669523  0.64411223  0.47327013    -0.43600
C1621       C  0.39752295  0.73295462  0.41761899    -0.00100
C1622       C  0.39678222  0.76244814  0.42589272    -0.11900
C1623       C  0.36522353  0.76365211  0.42667633     0.02200
C1624       C  0.33354690  0.73512594  0.41864679    -0.00100
C1625       C  0.33426473  0.70553791  0.41052129    -0.11900
C1626       C  0.36563821  0.70407845  0.41000513     0.02100
H1627       H  0.42085661  0.78445320  0.43218245     0.15100
H1628       H  0.31021118  0.68343116  0.40428115     0.15100
C1629       C  0.36411782  0.67285668  0.40111553     0.36700
C1630       C  0.36605705  0.79379983  0.43660649     0.36600
N1631       N  0.36265317  0.64770476  0.39405403    -0.43600
N1632       N  0.36677879  0.81788789  0.44468653    -0.43600
C1633       C  0.14646415  0.73088067  0.41570259    -0.00100
C1634       C  0.11581647  0.69934773  0.42163751    -0.11900
C1635       C  0.08233461  0.69659875  0.42158201     0.02200
C1636       C  0.07906533  0.72600244  0.41552377    -0.00100
C1637       C  0.10967727  0.75737792  0.40943998    -0.11900
C1638       C  0.14304251  0.76004059  0.40935140     0.02100
H1639       H  0.11798877  0.67673863  0.42659253     0.15100
H1640       H  0.10756851  0.77998031  0.40439229     0.15100
C1641       C  0.17282838  0.79265647  0.40193123     0.36700
C1642       C  0.05221556  0.66354700  0.42824763     0.36600
N1643       N  0.19654027  0.81882011  0.39590761    -0.43600
N1644       N  0.02814706  0.63697909  0.43352328    -0.43600
C1645       C  0.01520177  0.51686080  0.47800705    -0.00100
C1646       C  0.47310569  0.99068732  0.48772223    -0.11900
C1647       C  0.47197841  0.98893911  0.50914778     0.02200
C1648       C  0.01365218  0.51374721  0.52158290    -0.00100
C1649       C  0.02700330  0.54633388  0.51129975    -0.11900
C1650       C  0.02811553  0.54824994  0.48986030     0.02100
H1651       H  0.45004770  0.97182500  0.47900346     0.15100
H1652       H  0.03632572  0.57067025  0.52002608     0.15100
C1653       C  0.04255609  0.58294409  0.48072882     0.36700
C1654       C  0.43926151  0.96304347  0.51883744     0.36600
N1655       N  0.05437660  0.61090652  0.47358268    -0.43600
N1656       N  0.41297376  0.94248333  0.52660674    -0.43600
C1657       C  0.41607025  0.51178557  0.41778215    -0.00100
C1658       C  0.41571489  0.54238548  0.42436942    -0.11900
C1659       C  0.38418380  0.54355960  0.42508331     0.02200
C1660       C  0.35179224  0.51347248  0.41909767    -0.00100
C1661       C  0.34716257  0.98757143  0.42214587    -0.11900
C1662       C  0.37864299  0.98639985  0.42310740     0.02100
H1663       H  0.44027048  0.56565527  0.42910125     0.15100
H1664       H  0.32277860  0.96491174  0.42761250     0.15100
C1665       C  0.37699724  0.95538725  0.43220833     0.36700
C1666       C  0.38617430  0.57594009  0.43233633     0.36600
N1667       N  0.37557758  0.93057825  0.43961167    -0.43600
N1668       N  0.38799438  0.60199364  0.43810760    -0.43600
C1669       C  0.10307730  0.51653920  0.41329421    -0.00100
C1670       C  0.10281206  0.48480648  0.40878726    -0.11900
C1671       C  0.13415619  0.48324494  0.40854931     0.02200
C1672       C  0.16698113  0.51397830  0.41314586    -0.00100
C1673       C  0.15482869  0.03541882  0.42359457    -0.11900
C1674       C  0.12248545  0.03468723  0.42597150     0.02100
H1675       H  0.07791259  0.46089107  0.40534249     0.15100
H1676       H  0.17885826  0.05793683  0.42955993     0.15100
C1677       C  0.12257840  0.06367515  0.43692015     0.36700
C1678       C  0.13150541  0.44978407  0.40310002     0.36600
N1679       N  0.12262375  0.08679821  0.44578248    -0.43600
N1680       N  0.12918263  0.42291091  0.39867943    -0.43600
C1681       C  0.26332095  0.75591865  0.14536692    -0.00100
C1682       C  0.23376195  0.75352097  0.15567806    -0.11900
C1683       C  0.23152073  0.75220013  0.17707615     0.02200
C1684       C  0.25938902  0.75325809  0.18881493    -0.00100
C1685       C  0.28913752  0.75594758  0.17854291    -0.11900
C1686       C  0.29121645  0.75699041  0.15705595     0.02100
H1687       H  0.21223476  0.75293345  0.14697191     0.15100
H1688       H  0.31051791  0.75635580  0.18730649     0.15100
C1689       C  0.32141493  0.75734812  0.14749702     0.36700
C1690       C  0.20062318  0.75074124  0.18644113     0.36600
N1691       N  0.34553051  0.75744488  0.13984119    -0.43600
N1692       N  0.17583077  0.74953702  0.19389457    -0.43600
C1693       C  0.24853139  0.74253736  0.31234388    -0.00100
C1694       C  0.27739163  0.76776148  0.32399494    -0.11900
C1695       C  0.27656506  0.76684387  0.34546200     0.02200
C1696       C  0.24651326  0.73994375  0.35575592    -0.00100
C1697       C  0.21783480  0.71452975  0.34418299    -0.11900
C1698       C  0.21838275  0.71568878  0.32273457     0.02100
H1699       H  0.30069143  0.78850377  0.31632615     0.15100
H1700       H  0.19462046  0.69383497  0.35195197     0.15100
C1701       C  0.18780613  0.68842483  0.31196736     0.36700
C1702       C  0.30744559  0.79313969  0.35646575     0.36600
N1703       N  0.16319256  0.66659054  0.30341846    -0.43600
N1704       N  0.33220471  0.81421118  0.36526457    -0.43600
C1705       C  0.25533057  0.90579591  0.24943917    -0.00100
C1706       C  0.28249986  0.90351248  0.25965615    -0.11900
C1707       C  0.28210305  0.87128406  0.26113351     0.02200
C1708       C  0.25435019  0.84040768  0.25187941    -0.00100
C1709       C  0.22669016  0.84243752  0.24208488    -0.11900
C1710       C  0.22687092  0.87464255  0.24080219     0.02100
H1711       H  0.30400704  0.92697744  0.26680670     0.15100
H1712       H  0.20523917  0.81894422  0.23492320     0.15100
C1713       C  0.19816342  0.87494128  0.22985464     0.36700
C1714       C  0.30987512  0.87059048  0.27290019     0.36600
N1715       N  0.17504953  0.87498303  0.22110005    -0.43600
N1716       N  0.33202580  0.87002206  0.28241772    -0.43600
C1717       C  0.25644545  0.65624076  0.24979638    -0.00100
C1718       C  0.28972611  0.65824708  0.24841205    -0.11900
C1719       C  0.29279364  0.62774578  0.24831698     0.02200
C1720       C  0.26191844  0.59380682  0.24970489    -0.00100
C1721       C  0.22863645  0.59180710  0.25110802    -0.11900
C1722       C  0.22557839  0.62233129  0.25116754     0.02100
H1723       H  0.31377731  0.68389958  0.24727576     0.15100
H1724       H  0.20459358  0.56615885  0.25227121     0.15100
C1725       C  0.19029539  0.61757573  0.25288126     0.36700
C1726       C  0.32812360  0.63265413  0.24649359     0.36600
N1727       N  0.16194351  0.61356094  0.25424061    -0.43600
N1728       N  0.35657889  0.63700828  0.24495700    -0.43600
C1729       C  0.27155540  0.00776196  0.14140709    -0.00100
C1730       C  0.23864460  0.47922604  0.15536397    -0.11900
C1731       C  0.23714315  0.47674665  0.17674428     0.02200
C1732       C  0.26685605  0.00112157  0.18477937    -0.00100
C1733       C  0.29942989  0.02400141  0.17514444    -0.11900
C1734       C  0.30212994  0.02738866  0.15375330     0.02100
H1735       H  0.21633301  0.45955242  0.14648551     0.15100
H1736       H  0.32294649  0.03986917  0.18436113     0.15100
C1737       C  0.33658612  0.05159878  0.14515057     0.36700
C1738       C  0.20593257  0.44743363  0.18583735     0.36600
N1739       N  0.36428260  0.07091031  0.13833339    -0.43600
N1740       N  0.18089468  0.42390370  0.19305439    -0.43600
C1741       C  0.26232824  0.50876216  0.35538356    -0.00100
C1742       C  0.22815525  0.98163032  0.34098345    -0.11900
C1743       C  0.22894997  0.97818998  0.31967762     0.02200
C1744       C  0.25699398  0.00506231  0.30814098    -0.00100
C1745       C  0.29374862  0.52435910  0.32288628    -0.11900
C1746       C  0.29429578  0.52700145  0.34427756     0.02100
H1747       H  0.20658723  0.96062001  0.34963912     0.15100
H1748       H  0.31863586  0.53853284  0.31457932     0.15100
C1749       C  0.32807790  0.54736966  0.35455343     0.36700
C1750       C  0.20147965  0.94604559  0.31023363     0.36600
N1751       N  0.35509068  0.56349364  0.36285600    -0.43600
N1752       N  0.17952478  0.92022839  0.30269646    -0.43600
C1753       C  0.98549112  0.73954097  0.18679221    -0.00100
C1754       C  0.45990648  0.73746465  0.17834211    -0.11900
C1755       C  0.45863300  0.73691021  0.15689585     0.02200
C1756       C  0.98574086  0.73656112  0.14332286    -0.00100
C1757       C  0.01631351  0.76069924  0.15418159    -0.11900
C1758       C  0.01653835  0.76249065  0.17555540     0.02100
H1759       H  0.43561340  0.72970124  0.18684054     0.15100
H1760       H  0.04032909  0.77880885  0.14592847     0.15100
C1761       C  0.04904295  0.78882300  0.18527469     0.36700
C1762       C  0.42488515  0.72681366  0.14737458     0.36600
N1763       N  0.07517424  0.80993125  0.19295684    -0.43600
N1764       N  0.39779061  0.71878684  0.13984168    -0.43600
C1765       C  0.98887328  0.72871517  0.35314462    -0.00100
C1766       C  0.46043405  0.71218348  0.34508153    -0.11900
C1767       C  0.45851054  0.71343610  0.32370266     0.02200
C1768       C  0.98477042  0.73245763  0.31011057    -0.00100
C1769       C  0.01529048  0.75731816  0.32078299    -0.11900
C1770       C  0.01770718  0.75548567  0.34205332     0.02100
H1771       H  0.43765804  0.69231260  0.35355822     0.15100
H1772       H  0.03750330  0.77829108  0.31249626     0.15100
C1773       C  0.05068784  0.78036049  0.35194324     0.36700
C1774       C  0.42623847  0.68704799  0.31385648     0.36600
N1775       N  0.07722988  0.80006051  0.35982535    -0.43600
N1776       N  0.40023806  0.66583015  0.30611620    -0.43600
C1777       C  0.98647681  0.89673976  0.25320313    -0.00100
C1778       C  0.46311190  0.87329285  0.24218975    -0.11900
C1779       C  0.46179728  0.84053205  0.24197927     0.02200
C1780       C  0.98366959  0.83037064  0.25066051    -0.00100
C1781       C  0.01375223  0.86031102  0.25866099    -0.11900
C1782       C  0.01537930  0.89316452  0.26008096     0.02100
H1783       H  0.44195848  0.87557982  0.23486083     0.15100
H1784       H  0.03606134  0.85800158  0.26414212     0.15100
C1785       C  0.04665780  0.92227007  0.26927979     0.36700
C1786       C  0.43273331  0.81144234  0.23121393     0.36600
N1787       N  0.07173712  0.94549391  0.27669290    -0.43600
N1788       N  0.40952769  0.78825457  0.22248080    -0.43600
C1789       C  0.98772420  0.58222539  0.24841584    -0.00100
C1790       C  0.46229745  0.58890866  0.25505247    -0.11900
C1791       C  0.46039878  0.61999514  0.25582520     0.02200
C1792       C  0.98419751  0.64557381  0.24817730    -0.00100
C1793       C  0.01692577  0.64663656  0.24623674    -0.11900
C1794       C  0.01910893  0.61569062  0.24651190     0.02100
H1795       H  0.43957087  0.56426356  0.26040541     0.15100
H1796       H  0.04137323  0.67203623  0.24456001     0.15100
C1797       C  0.05410923  0.61965334  0.24505030     0.36700
C1798       C  0.42845276  0.61761482  0.26417104     0.36600
N1799       N  0.08226874  0.62309733  0.24399447    -0.43600
N1800       N  0.40271112  0.61523798  0.27095639    -0.43600
C1801       C  0.48588163  0.98795538  0.14408985    -0.00100
C1802       C  0.45862576  0.48423794  0.15461253    -0.11900
C1803       C  0.45760671  0.48517788  0.17607934     0.02200
C1804       C  0.48694734  0.99043988  0.18739893    -0.00100
C1805       C  0.01416077  0.98604524  0.18102521    -0.11900
C1806       C  0.01516147  0.98518780  0.15960263     0.02100
H1807       H  0.43659036  0.48257339  0.14591641     0.15100
H1808       H  0.03447021  0.98431870  0.18974240     0.15100
C1809       C  0.04299007  0.98118036  0.15004429     0.36700
C1810       C  0.42685245  0.48366018  0.18565323     0.36600
N1811       N  0.06527463  0.97789206  0.14243111    -0.43600
N1812       N  0.40211020  0.48235419  0.19324551    -0.43600
C1813       C  0.00174211  0.50876255  0.35463734    -0.00100
C1814       C  0.47623418  0.48063837  0.34496073    -0.11900
C1815       C  0.47314576  0.47679637  0.32363794     0.02200
C1816       C  0.99422756  0.49906255  0.31160284    -0.00100
C1817       C  0.02286365  0.01705289  0.32472249    -0.11900
C1818       C  0.02522205  0.02014184  0.34610711     0.02100
H1819       H  0.45529772  0.46086725  0.35455398     0.15100
H1820       H  0.04659616  0.03292763  0.31567572     0.15100
C1821       C  0.05943172  0.04327364  0.35532627     0.36700
C1822       C  0.44284797  0.44538602  0.31540286     0.36600
N1823       N  0.08681640  0.06165410  0.36277729    -0.43600
N1824       N  0.41866690  0.42011337  0.30883022    -0.43600
O1825       O  0.95833188  0.43114530  0.25208979    -0.74300
O1826       O  0.96009178  0.02047634  0.25308341    -0.74400
O1827       O  0.95522967  0.47164204  0.22161360    -0.74400
O1828       O  0.96126361  0.47862304  0.28019086    -0.74500
O1829       O  0.52313140  0.01335360  0.27764267    -0.74400
O1830       O  0.51901162  0.00731045  0.21896873    -0.74400
O1831       O  0.52086896  0.05413837  0.24704370    -0.74300
O1832       O  0.52226741  0.46711597  0.24894753    -0.74400
Ni1833     Ni  0.95616309  0.47397143  0.25099672     1.25400
Ni1834     Ni  0.52324687  0.01143389  0.24824702     1.25400
C1835       C  0.49265386  0.43794202  0.25015072     0.87900
C1836       C  0.49122029  0.05377615  0.24729266     0.87800
C1837       C  0.98379163  0.48536238  0.21091731     0.87800
C1838       C  0.49415252  0.99917652  0.28801600     0.88000
O1839       O  0.51616498  0.21394111  0.24739958    -0.74300
O1840       O  0.51653802  0.30186803  0.24908542    -0.74400
O1841       O  0.51537013  0.25631333  0.27758848    -0.74400
O1842       O  0.51730580  0.25959266  0.21899673    -0.74500
O1843       O  0.95865917  0.22620517  0.22092406    -0.74400
O1844       O  0.95828409  0.22348766  0.27956563    -0.74400
O1845       O  0.95784166  0.26842863  0.25114972    -0.74300
O1846       O  0.95878064  0.18139919  0.24942716    -0.74400
Ni1847     Ni  0.51843980  0.25895959  0.24829913     1.25400
Ni1848     Ni  0.95630449  0.22386446  0.25025449     1.25400
C1849       C  0.48650447  0.18467519  0.24682905     0.87900
C1850       C  0.48704061  0.30184298  0.24901780     0.87800
C1851       C  0.48550814  0.24074108  0.28705650     0.87800
C1852       C  0.48808091  0.24586296  0.20897166     0.88000
O1853       O  0.72191868  0.02281791  0.25097313    -0.74300
O1854       O  0.72529117  0.43875873  0.25143851    -0.74400
O1855       O  0.72735413  0.48602126  0.27934203    -0.74400
O1856       O  0.72778284  0.48187741  0.22076342    -0.74500
O1857       O  0.78245863  0.01047827  0.22144968    -0.74400
O1858       O  0.78041391  0.00768399  0.28005716    -0.74400
O1859       O  0.78436886  0.46615690  0.25163328    -0.74300
O1860       O  0.78103677  0.05253274  0.25146767    -0.74400
Ni1861     Ni  0.72539678  0.48276901  0.25003047     1.25400
Ni1862     Ni  0.78351852  0.00997896  0.25075774     1.25400
C1863       C  0.75144202  0.05223982  0.25162282     0.87900
C1864       C  0.75411511  0.43753479  0.25209014     0.87800
C1865       C  0.75691132  0.50066786  0.28908488     0.87800
C1866       C  0.75746505  0.49560029  0.21117074     0.88000
O1867       O  0.77867975  0.21327153  0.25358349    -0.74300
O1868       O  0.78169497  0.30239239  0.25495851    -0.74400
O1869       O  0.77806648  0.25595956  0.28353491    -0.74400
O1870       O  0.78212966  0.25980361  0.22496136    -0.74500
O1871       O  0.72307207  0.23149595  0.22390474    -0.74400
O1872       O  0.71890825  0.22800072  0.28226269    -0.74400
O1873       O  0.72264136  0.27453973  0.25361791    -0.74300
O1874       O  0.71960109  0.18508369  0.25254188    -0.74400
Ni1875     Ni  0.78225104  0.25881910  0.25431509     1.25400
Ni1876     Ni  0.71895125  0.22876976  0.25303631     1.25400
C1877       C  0.74870510  0.18436514  0.25290588     0.87900
C1878       C  0.75276133  0.30334901  0.25427461     0.87800
C1879       C  0.74778791  0.24126660  0.29255059     0.87800
C1880       C  0.75312696  0.24663239  0.21471117     0.88000
O1881       O  0.95070192  0.48364593  0.41839415    -0.74300
O1882       O  0.54172276  0.48832969  0.41527692    -0.74400
O1883       O  0.99842326  0.48640655  0.44587278    -0.74400
O1884       O  0.99147473  0.48251994  0.38755918    -0.74500
O1885       O  0.51743725  0.04101447  0.38558779    -0.74400
O1886       O  0.51850745  0.04512765  0.44447022    -0.74400
O1887       O  0.56134033  0.04233959  0.41519347    -0.74300
O1888       O  0.96701287  0.03145232  0.41932207    -0.74400
Ni1889     Ni  0.99407520  0.48253388  0.41674626     1.25400
Ni1890     Ni  0.51896994  0.04531222  0.41497777     1.25400
C1891       C  0.93802192  0.00160422  0.41965735     0.87900
C1892       C  0.56055767  0.01256191  0.41561057     0.87800
C1893       C  0.50339315  0.01608334  0.45467755     0.87800
C1894       C  0.50174311  0.01062650  0.37667948     0.88000
O1895       O  0.96243953  0.26737584  0.41701007    -0.74300
O1896       O  0.54895016  0.26569969  0.41499769    -0.74400
O1897       O  0.50526817  0.26730386  0.38602511    -0.74400
O1898       O  0.50564743  0.26632540  0.44450007    -0.74500
O1899       O  0.97794085  0.20957947  0.44635705    -0.74400
O1900       O  0.97556459  0.20708899  0.38778345    -0.74400
O1901       O  0.51858282  0.20667057  0.41441277    -0.74300
O1902       O  0.93283894  0.20829815  0.41770292    -0.74400
Ni1903     Ni  0.50659688  0.26875971  0.41530811     1.25400
Ni1904     Ni  0.97570510  0.20621346  0.41712127     1.25400
C1905       C  0.93308684  0.23783358  0.41790759     0.87900
C1906       C  0.54820850  0.23587788  0.41494846     0.87800
C1907       C  0.48977619  0.23808195  0.37598770     0.87800
C1908       C  0.49017538  0.23678897  0.45413891     0.88000
O1909       O  0.70236491  0.48831518  0.41602557    -0.74300
O1910       O  0.78959105  0.48739180  0.41772978    -0.74400
O1911       O  0.74553486  0.48949031  0.44601024    -0.74400
O1912       O  0.74610620  0.48582372  0.38772888    -0.74500
O1913       O  0.76510370  0.03259403  0.38726659    -0.74400
O1914       O  0.76285359  0.03621807  0.44608348    -0.74400
O1915       O  0.80748188  0.03406793  0.41796255    -0.74300
O1916       O  0.72026767  0.03508525  0.41548807    -0.74400
Ni1917     Ni  0.74485637  0.48570590  0.41691794     1.25400
Ni1918     Ni  0.76497488  0.03662999  0.41663682     1.25400
C1919       C  0.69064464  0.00578587  0.41602315     0.87900
C1920       C  0.80673650  0.00432477  0.41869487     0.87800
C1921       C  0.74796713  0.00718127  0.45628247     0.87800
C1922       C  0.74999882  0.00233356  0.37819570     0.88000
O1923       O  0.68342333  0.20985371  0.41897658    -0.74300
O1924       O  0.77203369  0.21098264  0.42036426    -0.74400
O1925       O  0.72625343  0.20977713  0.44900313    -0.74400
O1926       O  0.72914381  0.21098548  0.39042399    -0.74500
O1927       O  0.75859464  0.27014599  0.39098386    -0.74400
O1928       O  0.75515984  0.26884750  0.44937708    -0.74400
O1929       O  0.80098745  0.27005850  0.42096067    -0.74300
O1930       O  0.71269280  0.26888163  0.41935659    -0.74400
Ni1931     Ni  0.72665406  0.20824967  0.41969385     1.25400
Ni1932     Ni  0.75785473  0.27155279  0.42020829     1.25400
C1933       C  0.68342817  0.23931448  0.41875312     0.87900
C1934       C  0.80121613  0.24077407  0.42067021     0.87800
C1935       C  0.74021661  0.23917402  0.45889151     0.87800
C1936       C  0.74461989  0.24081769  0.38105798     0.88000
O1937       O  0.95152580  0.42566775  0.08187434    -0.74300
O1938       O  0.96164671  0.01929457  0.08673859    -0.74400
O1939       O  0.95213771  0.47086526  0.05315713    -0.74400
O1940       O  0.95286664  0.46965728  0.11195427    -0.74500
O1941       O  0.51459204  0.00356393  0.11148194    -0.74400
O1942       O  0.51323669  0.00616492  0.05300833    -0.74400
O1943       O  0.51386724  0.04875160  0.08340825    -0.74300
O1944       O  0.52254188  0.46589686  0.08142221    -0.74400
Ni1945     Ni  0.95033665  0.46916315  0.08252897     1.25400
Ni1946     Ni  0.51595309  0.00596887  0.08222218     1.25400
C1947       C  0.98099673  0.42562515  0.08171300     0.87900
C1948       C  0.99147359  0.04836320  0.08735749     0.87800
C1949       C  0.98163116  0.48570127  0.04331550     0.87800
C1950       C  0.98269291  0.48403038  0.12147077     0.88000
O1951       O  0.52565958  0.30453583  0.08117874    -0.74300
O1952       O  0.52248904  0.21514931  0.08329962    -0.74400
O1953       O  0.52769001  0.25975154  0.05305302    -0.74400
O1954       O  0.52086741  0.26007390  0.11139649    -0.74500
O1955       O  0.95940391  0.22342700  0.11239337    -0.74400
O1956       O  0.96237079  0.22376796  0.05373737    -0.74400
O1957       O  0.96293525  0.18067040  0.08354241    -0.74300
O1958       O  0.95856020  0.26618225  0.08268542    -0.74400
Ni1959     Ni  0.52627600  0.26087225  0.08230354     1.25400
Ni1960     Ni  0.95871123  0.22233831  0.08303621     1.25400
C1961       C  0.49656493  0.30517005  0.07986848     0.87900
C1962       C  0.49249581  0.18627979  0.08257917     0.87800
C1963       C  0.49931576  0.24621797  0.04225865     0.87800
C1964       C  0.49028971  0.24583460  0.12002070     0.88000
O1965       O  0.73207395  0.03409792  0.08325091    -0.74300
O1966       O  0.73478681  0.44934463  0.08344882    -0.74400
O1967       O  0.73511361  0.49379272  0.11239119    -0.74400
O1968       O  0.73675674  0.49357671  0.05388175    -0.74500
O1969       O  0.79641345  0.02466482  0.05501939    -0.74400
O1970       O  0.79229620  0.02363505  0.11369404    -0.74400
O1971       O  0.79393527  0.47780134  0.08403479    -0.74300
O1972       O  0.79113924  0.06646505  0.08410976    -0.74400
Ni1973     Ni  0.73388250  0.49285049  0.08312669     1.25400
Ni1974     Ni  0.79651764  0.02551516  0.08441104     1.25400
C1975       C  0.76064116  0.06433089  0.08371192     0.87900
C1976       C  0.76402789  0.44886559  0.08394851     0.87800
C1977       C  0.76438043  0.50748782  0.12238287     0.87800
C1978       C  0.76657537  0.50695456  0.04444511     0.88000
O1979       O  0.72956536  0.23975596  0.11638329    -0.74300
O1980       O  0.72658242  0.23918681  0.05806832    -0.74400
O1981       O  0.72859655  0.19567801  0.08683856    -0.74400
O1982       O  0.72811716  0.28348626  0.08762952    -0.74500
O1983       O  0.78726638  0.31293599  0.08663796    -0.74400
O1984       O  0.78774421  0.22580754  0.08587412    -0.74400
O1985       O  0.78577120  0.26883794  0.05683630    -0.74300
O1986       O  0.78867971  0.26955041  0.11566448    -0.74400
Ni1987     Ni  0.72611083  0.23846301  0.08726922     1.25400
Ni1988     Ni  0.78948000  0.27035489  0.08621721     1.25400
C1989       C  0.75943253  0.25459186  0.12576302     0.87900
C1990       C  0.75553919  0.25380726  0.04776721     0.87800
C1991       C  0.75843253  0.19633809  0.08636181     0.87800
C1992       C  0.75775162  0.31278822  0.08722621     0.88000
O1993       O  0.92967207  0.47499754  0.91658874    -0.74300
O1994       O  0.51623508  0.06284821  0.91794148    -0.74400
O1995       O  0.98903617  0.02581539  0.89060558    -0.74400
O1996       O  0.98504142  0.01982866  0.94926520    -0.74500
O1997       O  0.51566649  0.49374317  0.94473667    -0.74400
O1998       O  0.51648778  0.49896547  0.88611371    -0.74400
O1999       O  0.54678715  0.03436495  0.91574025    -0.74300
O2000       O  0.95964794  0.44596578  0.91477742    -0.74400
Ni2001     Ni  0.98603065  0.02392519  0.91995246     1.25400
Ni2002     Ni  0.51710093  0.49519469  0.91536624     1.25400
C2003       C  0.93011759  0.44583222  0.91578815     0.87900
C2004       C  0.54593217  0.06328716  0.91710666     0.87800
C2005       C  0.50182903  0.51461227  0.87721369     0.87800
C2006       C  0.50080254  0.50779302  0.95516086     0.88000
O2007       O  0.57460505  0.27809549  0.91633846    -0.74300
O2008       O  0.97722984  0.19292103  0.91550329    -0.74400
O2009       O  0.53353220  0.23343601  0.88637389    -0.74400
O2010       O  0.52885842  0.23387117  0.94494768    -0.74500
O2011       O  0.98689897  0.26284667  0.94660994    -0.74400
O2012       O  0.99069435  0.26794649  0.88807498    -0.74400
O2013       O  0.94594683  0.22067006  0.91584768    -0.74300
O2014       O  0.54397985  0.30661256  0.91529047    -0.74400
Ni2015     Ni  0.53239234  0.23264341  0.91572688     1.25400
Ni2016     Ni  0.98769263  0.26640043  0.91735014     1.25400
C2017       C  0.57363547  0.30702391  0.91609987     0.87900
C2018       C  0.94726461  0.19193769  0.91539147     0.87800
C2019       C  0.51913705  0.24786933  0.87601997     0.87800
C2020       C  0.51243517  0.24778703  0.95387419     0.88000
O2021       O  0.73697735  0.43943214  0.91717146    -0.74300
O2022       O  0.81884856  0.02508295  0.91613352    -0.74400
O2023       O  0.77986269  0.48451461  0.94666770    -0.74400
O2024       O  0.78131878  0.48300897  0.88791528    -0.74500
O2025       O  0.74242544  0.00621122  0.88778477    -0.74400
O2026       O  0.74751514  0.01456862  0.94597856    -0.74400
O2027       O  0.78869972  0.05396880  0.91476199    -0.74300
O2028       O  0.70669487  0.46831463  0.91655767    -0.74400
Ni2029     Ni  0.78171509  0.48269214  0.91731832     1.25400
Ni2030     Ni  0.74395321  0.01137924  0.91684458     1.25400
C2031       C  0.70742467  0.43926127  0.91665346     0.87900
C2032       C  0.81827891  0.05418899  0.91495484     0.87800
C2033       C  0.76433506  0.49915556  0.95586538     0.87800
C2034       C  0.76616558  0.49706602  0.87792143     0.88000
O2035       O  0.77020668  0.31030699  0.92143977    -0.74300
O2036       O  0.68191271  0.22328220  0.92073382    -0.74400
O2037       O  0.72708183  0.26520510  0.95048712    -0.74400
O2038       O  0.72566906  0.26849994  0.89175948    -0.74500
O2039       O  0.75428255  0.23812441  0.89039970    -0.74400
O2040       O  0.75671952  0.23572896  0.94879018    -0.74400
O2041       O  0.71088864  0.19314991  0.91937110    -0.74300
O2042       O  0.79948432  0.28058476  0.91955523    -0.74400
Ni2043     Ni  0.72512294  0.26783768  0.92120379     1.25400
Ni2044     Ni  0.75630995  0.23576333  0.91950258     1.25400
C2045       C  0.79947632  0.30999469  0.92037993     0.87900
C2046       C  0.68172951  0.19381802  0.91962183     0.87800
C2047       C  0.74263354  0.25039559  0.95931676     0.87800
C2048       C  0.74022050  0.25409463  0.88133116     0.88000
O2049       O  0.98698425  0.48423985  0.61243197    -0.74300
O2050       O  0.99465300  0.48400860  0.55405312    -0.74400
O2051       O  0.53386718  0.48382906  0.58567292    -0.74400
O2052       O  0.94755884  0.48501399  0.58083834    -0.74500
O2053       O  0.96931606  0.03393567  0.58547984    -0.74400
O2054       O  0.55846179  0.03897589  0.58406369    -0.74400
O2055       O  0.51702403  0.04076543  0.55368412    -0.74300
O2056       O  0.51170449  0.03721877  0.61227296    -0.74400
Ni2057     Ni  0.98978771  0.48200181  0.58325220     1.25400
Ni2058     Ni  0.51546368  0.04095513  0.58302737     1.25400
C2059       C  0.49611645  0.00727055  0.62150443     0.87900
C2060       C  0.50201959  0.01176793  0.54341043     0.87800
C2061       C  0.55837668  0.00950359  0.58361429     0.87800
C2062       C  0.93956064  0.00480135  0.58551982     0.88000
O2063       O  0.96448935  0.27629231  0.58333951    -0.74300
O2064       O  0.55079026  0.27173457  0.58220493    -0.74400
O2065       O  0.50691022  0.27242147  0.55305849    -0.74400
O2066       O  0.50775440  0.27300901  0.61170110    -0.74500
O2067       O  0.97787016  0.21670282  0.61286448    -0.74400
O2068       O  0.97864701  0.21658761  0.55434055    -0.74400
O2069       O  0.52031092  0.21265163  0.58213344    -0.74300
O2070       O  0.93453545  0.21707496  0.58324498    -0.74400
Ni2071     Ni  0.50842193  0.27484855  0.58237717     1.25400
Ni2072     Ni  0.97716435  0.21453202  0.58355945     1.25400
C2073       C  0.93510929  0.24677723  0.58306839     0.87900
C2074       C  0.54996429  0.24187575  0.58222430     0.87800
C2075       C  0.49139285  0.24284112  0.54334567     0.87800
C2076       C  0.49305603  0.24353233  0.62143630     0.88000
O2077       O  0.69517278  0.47847196  0.58468961    -0.74300
O2078       O  0.78403439  0.48059514  0.58081937    -0.74400
O2079       O  0.74113867  0.47685415  0.61187131    -0.74400
O2080       O  0.73846267  0.48210432  0.55359432    -0.74500
O2081       O  0.76144426  0.03305651  0.55558676    -0.74400
O2082       O  0.76317966  0.03237102  0.61433425    -0.74400
O2083       O  0.80595735  0.03240262  0.58423999    -0.74300
O2084       O  0.71849886  0.03299462  0.58562503    -0.74400
Ni2085     Ni  0.73862358  0.47742085  0.58267020     1.25400
Ni2086     Ni  0.76330878  0.03481820  0.58497255     1.25400
C2087       C  0.69472983  0.50761627  0.58606718     0.87900
C2088       C  0.81306290  0.51044089  0.58109181     0.87800
C2089       C  0.75559861  0.50555502  0.62239886     0.87800
C2090       C  0.75358219  0.51224847  0.54459764     0.88000
O2091       O  0.68399724  0.21398444  0.58693646    -0.74300
O2092       O  0.77296756  0.21559348  0.58640842    -0.74400
O2093       O  0.72880856  0.21518099  0.61612728    -0.74400
O2094       O  0.72797481  0.21413723  0.55749864    -0.74500
O2095       O  0.75718932  0.27321212  0.55732437    -0.74400
O2096       O  0.75705148  0.27431072  0.61578997    -0.74400
O2097       O  0.80156057  0.27477606  0.58660704    -0.74300
O2098       O  0.71309709  0.27306458  0.58639090    -0.74400
Ni2099     Ni  0.72740825  0.21256112  0.58678513     1.25400
Ni2100     Ni  0.75826316  0.27590364  0.58654009     1.25400
C2101       C  0.68393131  0.24342149  0.58662274     0.87900
C2102       C  0.80193067  0.24557234  0.58634346     0.87800
C2103       C  0.74270474  0.24495982  0.62563629     0.87800
C2104       C  0.74261303  0.24355757  0.54770571     0.88000
O2105       O  0.54635224  0.03635495  0.74925188    -0.74300
O2106       O  0.95692894  0.44909608  0.74938522    -0.74400
O2107       O  0.50664463  0.49576293  0.71939386    -0.74400
O2108       O  0.51365543  0.49970760  0.77777310    -0.74500
O2109       O  0.98718813  0.02472605  0.78241544    -0.74400
O2110       O  0.98171649  0.02066658  0.72377374    -0.74400
O2111       O  0.92749952  0.47879906  0.74911582    -0.74300
O2112       O  0.51551404  0.06462633  0.74878995    -0.74400
Ni2113     Ni  0.51116635  0.49668805  0.74853895     1.25400
Ni2114     Ni  0.98329137  0.02371759  0.75310365     1.25400
C2115       C  0.54527714  0.06523437  0.74917553     0.87900
C2116       C  0.92763044  0.44939656  0.74923934     0.87800
C2117       C  0.49170877  0.51082203  0.71022811     0.87800
C2118       C  0.50067068  0.51566474  0.78807421     0.88000
O2119       O  0.53800516  0.30408822  0.74868576    -0.74300
O2120       O  0.93947673  0.21685960  0.75214918    -0.74400
O2121       O  0.98372158  0.26589057  0.77938426    -0.74400
O2122       O  0.97831022  0.25993673  0.72094096    -0.74500
O2123       O  0.52184912  0.23045131  0.71840717    -0.74400
O2124       O  0.52883542  0.23199773  0.77697961    -0.74400
O2125       O  0.97338603  0.19184947  0.75218020    -0.74300
O2126       O  0.56876308  0.27581272  0.74661228    -0.74400
Ni2127     Ni  0.97974924  0.26372383  0.75020105     1.25400
Ni2128     Ni  0.52651985  0.23023712  0.74763394     1.25400
C2129       C  0.56770601  0.30470125  0.74756772     0.87900
C2130       C  0.94267844  0.18914617  0.75288134     0.87800
C2131       C  0.51494142  0.24691634  0.78749538     0.87800
C2132       C  0.50518776  0.24428567  0.70978993     0.88000
O2133       O  0.69898195  0.46716334  0.75111606    -0.74300
O2134       O  0.78185177  0.05447706  0.75454054    -0.74400
O2135       O  0.73942905  0.01515671  0.72324347    -0.74400
O2136       O  0.73627226  0.00652157  0.78168080    -0.74500
O2137       O  0.77486573  0.48318077  0.77842710    -0.74400
O2138       O  0.77129417  0.48447608  0.71971908    -0.74400
O2139       O  0.81143852  0.02505214  0.75223754    -0.74300
O2140       O  0.72995239  0.43907483  0.74939693    -0.74400
Ni2141     Ni  0.73681616  0.01195171  0.75256042     1.25400
Ni2142     Ni  0.77414150  0.48266500  0.74900866     1.25400
C2143       C  0.70018636  0.43834837  0.75041047     0.87900
C2144       C  0.81120279  0.05426505  0.75425287     0.87800
C2145       C  0.75564586  0.49928524  0.71098133     0.87800
C2146       C  0.76014425  0.49736561  0.78889322     0.88000
O2147       O  0.75313108  0.24228168  0.78281635    -0.74300
O2148       O  0.75320170  0.23823029  0.72444720    -0.74400
O2149       O  0.79718350  0.28431377  0.75301206    -0.74400
O2150       O  0.70903387  0.19659106  0.75416005    -0.74500
O2151       O  0.67963311  0.22626792  0.75307595    -0.74400
O2152       O  0.76755725  0.31376690  0.75199516    -0.74400
O2153       O  0.72382994  0.26797279  0.72322176    -0.74300
O2154       O  0.72363530  0.27181480  0.78198766    -0.74400
Ni2155     Ni  0.75418470  0.23931457  0.75367777     1.25400
Ni2156     Ni  0.72260652  0.27101989  0.75253922     1.25400
C2157       C  0.73847194  0.25760315  0.79216014     0.87900
C2158       C  0.73860492  0.25247461  0.71414961     0.87800
C2159       C  0.79694241  0.31361332  0.75229522     0.87800
C2160       C  0.67972742  0.19691174  0.75366196     0.88000
C2161       C  0.91020605  0.15372624  0.75459086    -0.00100
C2162       C  0.87949074  0.15168263  0.76308412    -0.11900
C2163       C  0.84746519  0.11944230  0.76405229     0.02200
C2164       C  0.84532589  0.08830691  0.75577839    -0.00100
C2165       C  0.87644265  0.08999029  0.74821229    -0.11900
C2166       C  0.90873139  0.12211113  0.74772027     0.02100
H2167       H  0.88050246  0.17541899  0.76916580     0.15100
H2168       H  0.87545778  0.06624835  0.74217242     0.15100
C2169       C  0.93942546  0.12164578  0.73954981     0.36700
C2170       C  0.81774569  0.11913826  0.77426015     0.36600
N2171       N  0.96393757  0.12092896  0.73315728    -0.43600
N2172       N  0.79409975  0.11895439  0.78260112    -0.43600
C2173       C  0.60136047  0.33915186  0.74799401    -0.00100
C2174       C  0.63233985  0.33988556  0.75488337    -0.11900
C2175       C  0.66463976  0.37178927  0.75628860     0.02200
C2176       C  0.66656399  0.40390312  0.75026224    -0.00100
C2177       C  0.63553876  0.40319475  0.74355937    -0.11900
C2178       C  0.60315721  0.37141620  0.74245533    -0.07500
H2179       H  0.63120911  0.31550190  0.75969353     0.15100
H2180       H  0.63658151  0.42759482  0.73887509     0.15100
C2181       C  0.57258673  0.37298501  0.73519794     0.36700
C2182       C  0.69474654  0.37072231  0.76483910     0.36600
N2183       N  0.54815499  0.37443001  0.72946642    -0.43600
N2184       N  0.71871047  0.36974814  0.77181881    -0.43600
C2185       C  0.83080246  0.34797267  0.75155204    -0.00100
C2186       C  0.83007653  0.37803676  0.74434669    -0.11900
C2187       C  0.86102966  0.41123045  0.74325898     0.02200
C2188       C  0.89380206  0.41500458  0.74966219    -0.00100
C2189       C  0.89454280  0.38492561  0.75680419    -0.11900
C2190       C  0.86365769  0.35171039  0.75779144     0.02100
H2191       H  0.80521606  0.37559973  0.73922757     0.15100
H2192       H  0.91939665  0.38735196  0.76193010     0.15100
C2193       C  0.86672421  0.32241640  0.76576007     0.36700
C2194       C  0.85824396  0.44041849  0.73486574     0.36600
N2195       N  0.86942613  0.29908256  0.77212721    -0.43600
N2196       N  0.85580525  0.46364514  0.72807346    -0.43600
C2197       C  0.57914342  0.09945494  0.75020809    -0.00100
C2198       C  0.60934077  0.09922020  0.75766693    -0.11900
C2199       C  0.64209737  0.13044844  0.75933362     0.02200
C2200       C  0.64537505  0.16308389  0.75320533    -0.00100
C2201       C  0.61506766  0.16343049  0.74598782    -0.11900
C2202       C  0.58217907  0.13217369  0.74447915     0.02100
H2203       H  0.60733459  0.07448938  0.76258183     0.15100
H2204       H  0.61708586  0.18820843  0.74117199     0.15100
C2205       C  0.55248597  0.13470244  0.73658214     0.36700
C2206       C  0.67135596  0.12797967  0.76798933     0.36600
N2207       N  0.52879269  0.13694103  0.73030592    -0.43600
N2208       N  0.69464522  0.12580495  0.77498365    -0.43600
C2209       C  0.74143744  0.24592210  0.64829095    -0.00100
C2210       C  0.74002015  0.27435181  0.65761201    -0.11900
C2211       C  0.73854419  0.27684567  0.67892315     0.02200
C2212       C  0.73891144  0.25064789  0.69147284    -0.00100
C2213       C  0.74042650  0.22221535  0.68215519    -0.11900
C2214       C  0.74143610  0.21948240  0.66079755     0.02100
H2215       H  0.73977439  0.29470741  0.64818185     0.15100
H2216       H  0.74066928  0.20187367  0.69159484     0.15100
C2217       C  0.74350938  0.18985489  0.65228572     0.36700
C2218       C  0.73776721  0.30719355  0.68736427     0.36600
N2219       N  0.74511666  0.16604295  0.64554417    -0.43600
N2220       N  0.73708649  0.33151616  0.69407162    -0.43600
C2221       C  0.75615382  0.50367539  0.64496380    -0.00100
C2222       C  0.75168310  0.03008690  0.65774832    -0.11900
C2223       C  0.75306356  0.03067529  0.67921548     0.02200
C2224       C  0.75544521  0.50126453  0.68828282    -0.00100
C2225       C  0.76128228  0.47734994  0.67667692    -0.11900
C2226       C  0.76146258  0.47818892  0.65522853     0.02100
H2227       H  0.75047195  0.05126967  0.64975814     0.15100
H2228       H  0.76553171  0.45772203  0.68435665     0.15100
C2229       C  0.76834007  0.45337108  0.64420461     0.36700
C2230       C  0.75442327  0.06058480  0.68976248     0.36600
N2231       N  0.77388070  0.43348424  0.63540160    -0.43600
N2232       N  0.75565474  0.08465835  0.69816542    -0.43600
C2233       C  0.83632786  0.24653454  0.58554445    -0.00100
C2234       C  0.83918701  0.22130475  0.57346402    -0.11900
C2235       C  0.87145904  0.22163731  0.57186888     0.02200
C2236       C  0.90131947  0.24699481  0.58298278    -0.00100
C2237       C  0.89868178  0.27265538  0.59472152    -0.11900
C2238       C  0.86660165  0.27272200  0.59604674     0.02100
H2239       H  0.81636135  0.20180953  0.56483912     0.15100
H2240       H  0.92156403  0.29226218  0.60326507     0.15100
C2241       C  0.86524717  0.29915388  0.60888801     0.36700
C2242       C  0.87376663  0.19703794  0.55786631     0.36600
N2243       N  0.86417286  0.32036462  0.61914906    -0.43600
N2244       N  0.87582718  0.17765319  0.54649077    -0.43600
C2245       C  0.58388475  0.24150044  0.58297241    -0.00100
C2246       C  0.61427100  0.27188904  0.59031038    -0.11900
C2247       C  0.64687262  0.27303206  0.59194589     0.02200
C2248       C  0.64972061  0.24320197  0.58604945    -0.00100
C2249       C  0.61932567  0.21273250  0.57877557    -0.11900
C2250       C  0.58668982  0.21164720  0.57708242     0.02100
H2251       H  0.61253196  0.29486504  0.59513305     0.15100
H2252       H  0.62116288  0.18981373  0.57394844     0.15100
C2253       C  0.55708940  0.17996164  0.56856871     0.36700
C2254       C  0.67650637  0.30496886  0.60024412     0.36600
N2255       N  0.53349183  0.15454970  0.56168538    -0.43600
N2256       N  0.70018002  0.33060550  0.60687337    -0.43600
C2257       C  0.49473998  0.24357071  0.64411412    -0.00100
C2258       C  0.49506101  0.21505422  0.65395117    -0.11900
C2259       C  0.49819585  0.21451353  0.67528245     0.02200
C2260       C  0.50146725  0.24317519  0.68721677    -0.00100
C2261       C  0.98905153  0.27117508  0.67808418    -0.11900
C2262       C  0.98884772  0.27217293  0.65665939     0.02100
H2263       H  0.49308364  0.19312959  0.64493816     0.15100
H2264       H  0.98684018  0.29135304  0.68671051     0.15100
C2265       C  0.98440296  0.29947649  0.64692864     0.36700
C2266       C  0.49618924  0.18342767  0.68450331     0.36600
N2267       N  0.98083385  0.32135181  0.63914620    -0.43600
N2268       N  0.49423976  0.15832993  0.69183041    -0.43600
C2269       C  0.90576715  0.00525561  0.58493395    -0.00100
C2270       C  0.88412311  0.48491250  0.57208589    -0.11900
C2271       C  0.85096473  0.48286517  0.57200938     0.02200
C2272       C  0.84768309  0.51158515  0.57964997    -0.00100
C2273       C  0.87020727  0.03339091  0.59059730    -0.11900
C2274       C  0.90304857  0.03489041  0.59133778     0.02100
H2275       H  0.88615129  0.46254799  0.56634503     0.15100
H2276       H  0.86847919  0.05617684  0.59584691     0.15100
C2277       C  0.93296578  0.06685573  0.59934468     0.36700
C2278       C  0.82118899  0.45125056  0.56354309     0.36600
N2279       N  0.95674015  0.09264539  0.60574052    -0.43600
N2280       N  0.79743684  0.42592335  0.55669263    -0.43600
C2281       C  0.59228596  0.00890460  0.58425819    -0.00100
C2282       C  0.59597202  0.47900513  0.58464828    -0.11900
C2283       C  0.62695457  0.47665290  0.58422231     0.02200
C2284       C  0.66041014  0.50736320  0.58773434    -0.00100
C2285       C  0.65665786  0.03719534  0.58713362    -0.11900
C2286       C  0.62593469  0.03989328  0.58651340     0.02100
H2287       H  0.57075787  0.45539805  0.58130425     0.15100
H2288       H  0.68211785  0.06130087  0.58894021     0.15100
C2289       C  0.63029874  0.07498807  0.58811773     0.36700
C2290       C  0.62321696  0.44242381  0.57967234     0.36600
N2291       N  0.63408336  0.10322584  0.58933739    -0.43600
N2292       N  0.61998913  0.41488243  0.57608953    -0.43600
C2293       C  0.49316549  0.00628923  0.64426330    -0.00100
C2294       C  0.48795850  0.48208243  0.65486479    -0.11900
C2295       C  0.48552015  0.48030059  0.67625034     0.02200
C2296       C  0.48858307  0.00317020  0.68768131    -0.00100
C2297       C  0.99703367  0.03317775  0.68062070    -0.11900
C2298       C  0.99748362  0.03390573  0.65918965     0.02100
H2299       H  0.48513243  0.45930327  0.64640175     0.15100
H2300       H  0.99974198  0.05592966  0.68907762     0.15100
C2301       C  0.00042844  0.06491017  0.64931143     0.36700
C2302       C  0.47735098  0.44736564  0.68609178     0.36600
N2303       N  0.00292447  0.08995168  0.64158159    -0.43600
N2304       N  0.47059683  0.42093317  0.69397916    -0.43600
C2305       C  0.74079708  0.25589790  0.85851723    -0.00100
C2306       C  0.72089683  0.26884844  0.84855027    -0.11900
C2307       C  0.71994060  0.27033564  0.82709019     0.02200
C2308       C  0.73910169  0.25842792  0.81500462    -0.00100
C2309       C  0.75958721  0.24628354  0.82503289    -0.11900
C2310       C  0.76080718  0.24506046  0.84637506     0.02100
H2311       H  0.70566582  0.27764165  0.85753019     0.15100
H2312       H  0.77505102  0.23762773  0.81616417     0.15100
C2313       C  0.78345005  0.23297655  0.85508101     0.36700
C2314       C  0.69876888  0.28391599  0.81813635     0.36600
N2315       N  0.80168674  0.22332271  0.86192450    -0.43600
N2316       N  0.68183558  0.29492994  0.81106700    -0.43600
C2317       C  0.76573788  0.49682601  0.85511487    -0.00100
C2318       C  0.72456514  0.98448494  0.84629626    -0.11900
C2319       C  0.72217694  0.98431500  0.82492868     0.02200
C2320       C  0.76185210  0.49773408  0.81168256    -0.00100
C2321       C  0.77714495  0.47983849  0.82149448    -0.11900
C2322       C  0.77922992  0.47920566  0.84292088     0.02100
H2323       H  0.70237162  0.98152192  0.85547181     0.15100
H2324       H  0.78745515  0.46603449  0.81242003     0.15100
C2325       C  0.79513893  0.46002399  0.85171648     0.36700
C2326       C  0.68956039  0.97902541  0.81586860     0.36600
N2327       N  0.80794894  0.44463254  0.85865813    -0.43600
N2328       N  0.66336451  0.97467141  0.80864704    -0.43600
C2329       C  0.91388880  0.15702180  0.91483845    -0.00100
C2330       C  0.91593941  0.12637854  0.91057242    -0.11900
C2331       C  0.88551963  0.09265673  0.91036686     0.02200
C2332       C  0.85181192  0.08897269  0.91436426    -0.00100
C2333       C  0.84979913  0.11967674  0.91842629    -0.11900
C2334       C  0.88014227  0.15328232  0.91883308     0.02100
H2335       H  0.94151156  0.12863657  0.90739151     0.15100
H2336       H  0.82431928  0.11752121  0.92177023     0.15100
C2337       C  0.87543200  0.18296897  0.92408855     0.36700
C2338       C  0.89016936  0.06274183  0.90587203     0.36600
N2339       N  0.87141839  0.20657705  0.92836510    -0.43600
N2340       N  0.89454269  0.03913706  0.90231491    -0.43600
C2341       C  0.60747998  0.34120607  0.91641496    -0.00100
C2342       C  0.63769087  0.34258305  0.90761075    -0.11900
C2343       C  0.67041660  0.37413983  0.90733823     0.02200
C2344       C  0.67348410  0.40518074  0.91630111    -0.00100
C2345       C  0.64324170  0.40385406  0.92502587    -0.11900
C2346       C  0.61045144  0.37233470  0.92517861     0.02100
H2347       H  0.63561043  0.31900808  0.90053003     0.15100
H2348       H  0.64530767  0.42746107  0.93205198     0.15100
C2349       C  0.58080267  0.37258545  0.93509621     0.36700
C2350       C  0.69980607  0.37409277  0.89692990     0.36600
N2351       N  0.55712847  0.37290254  0.94307245    -0.43600
N2352       N  0.72322952  0.37397718  0.88849696    -0.43600
C2353       C  0.52036716  0.24796055  0.85335620    -0.00100
C2354       C  0.51918561  0.27554048  0.84296858    -0.11900
C2355       C  0.51840105  0.27627186  0.82159039     0.02200
C2356       C  0.51823910  0.24858931  0.81007880    -0.00100
C2357       C  0.02701581  0.24777283  0.82173763    -0.11900
C2358       C  0.02919422  0.24766645  0.84312699     0.02100
H2359       H  0.51905552  0.29684727  0.85160064     0.15100
H2360       H  0.04360449  0.24066728  0.81276481     0.15100
C2361       C  0.05433231  0.23892874  0.85192474     0.36700
C2362       C  0.51892392  0.30640117  0.81197526     0.36600
N2363       N  0.07459869  0.23197867  0.85883839    -0.43600
N2364       N  0.51948512  0.33062753  0.80431602    -0.43600
C2365       C  0.83337537  0.34435457  0.91959475    -0.00100
C2366       C  0.83176222  0.37542766  0.91625335    -0.11900
C2367       C  0.86253655  0.40860645  0.91480337     0.02200
C2368       C  0.89630303  0.41136591  0.91661019    -0.00100
C2369       C  0.89792471  0.38029973  0.92002279    -0.11900
C2370       C  0.86708590  0.34713123  0.92165581     0.02100
H2371       H  0.80621526  0.37393779  0.91456802     0.15100
H2372       H  0.92348332  0.38184811  0.92177752     0.15100
C2373       C  0.87124531  0.31685713  0.92595748     0.36700
C2374       C  0.85811166  0.43895423  0.91128645     0.36600
N2375       N  0.87477667  0.29274105  0.92946103    -0.43600
N2376       N  0.85424209  0.46307567  0.90853591    -0.43600
C2377       C  0.58005079  0.09737714  0.91751948    -0.00100
C2378       C  0.61028916  0.09818265  0.90912638    -0.11900
C2379       C  0.64347363  0.12918635  0.90937608     0.02200
C2380       C  0.64716762  0.16029545  0.91860922    -0.00100
C2381       C  0.61685257  0.15971012  0.92670449    -0.11900
C2382       C  0.58350238  0.12881861  0.92615823     0.02100
H2383       H  0.60795568  0.07454797  0.90197734     0.15100
H2384       H  0.61921719  0.18346029  0.93370914     0.15100
C2385       C  0.55372085  0.13025694  0.93500168     0.36700
C2386       C  0.67268240  0.12851820  0.89914637     0.36600
N2387       N  0.52995459  0.13165562  0.94203191    -0.43600
N2388       N  0.69592429  0.12791187  0.89080142    -0.43600
C2389       C  0.50228225  0.51666419  0.85441698    -0.00100
C2390       C  0.98780972  0.48089025  0.84383093    -0.11900
C2391       C  0.98680364  0.47957135  0.82243314     0.02200
C2392       C  0.50290945  0.51687633  0.81085796    -0.00100
C2393       C  0.46023502  0.00872191  0.82179952    -0.11900
C2394       C  0.45908470  0.00812534  0.84328570     0.02100
H2395       H  0.98927524  0.46011213  0.85214589     0.15100
H2396       H  0.43778266  0.00651141  0.81329992     0.15100
C2397       C  0.42760812  0.00424029  0.85326872     0.36700
C2398       C  0.98660009  0.44969506  0.81252113     0.36600
N2399       N  0.40235933  0.00110709  0.86124123    -0.43600
N2400       N  0.98631389  0.42568055  0.80462197    -0.43600
C2401       C  0.74533526  0.25092570  0.98196789    -0.00100
C2402       C  0.77521600  0.25187612  0.99092499    -0.11900
C2403       C  0.77955429  0.25333200  0.01225266     0.02200
C2404       C  0.75333685  0.25339462  0.02509753    -0.00100
C2405       C  0.72332811  0.25207173  0.01611381    -0.11900
C2406       C  0.71918481  0.25098731  0.99483433     0.02100
H2407       H  0.79553488  0.25188751  0.98121535     0.15100
H2408       H  0.70293723  0.25202870  0.02577369     0.15100
C2409       C  0.68725511  0.24880598  0.98673986     0.36700
C2410       C  0.81059521  0.25368218  0.02043448     0.36600
N2411       N  0.66166199  0.24706286  0.98026391    -0.43600
N2412       N  0.83549833  0.25398773  0.02695541    -0.43600
C2413       C  0.76300780  0.41432974  0.08476245    -0.00100
C2414       C  0.73169805  0.38427480  0.09154352    -0.11900
C2415       C  0.72934013  0.35107095  0.09292018     0.02200
C2416       C  0.75855014  0.34723999  0.08693134    -0.00100
C2417       C  0.78989630  0.37735273  0.08031648    -0.11900
C2418       C  0.79253555  0.41061111  0.07934114     0.02100
H2419       H  0.70908518  0.38679710  0.09624053     0.15100
H2420       H  0.81265062  0.37500041  0.07570835     0.15100
C2421       C  0.82596109  0.44004079  0.07254711     0.36700
C2422       C  0.69717927  0.32201575  0.10134287     0.36600
N2423       N  0.85304113  0.46337315  0.06727678    -0.43600
N2424       N  0.67145973  0.29887917  0.10823888    -0.43600
C2425       C  0.75894625  0.09753331  0.08424854    -0.00100
C2426       C  0.78906035  0.12865671  0.09111807    -0.11900
C2427       C  0.78946371  0.16088737  0.09215804     0.02200
C2428       C  0.75909734  0.16262938  0.08614820    -0.00100
C2429       C  0.72881612  0.13148861  0.07943241    -0.11900
C2430       C  0.72847379  0.09917579  0.07833824     0.02100
H2431       H  0.81251574  0.12786331  0.09597462     0.15100
H2432       H  0.70543780  0.13245457  0.07461308     0.15100
C2433       C  0.69685152  0.06868423  0.07046551     0.36700
C2434       C  0.82127467  0.19130587  0.09997070     0.36600
N2435       N  0.67143827  0.04439004  0.06410919    -0.43600
N2436       N  0.84685134  0.21555447  0.10621281    -0.43600
C2437       C  0.76396735  0.50028773  0.97854089    -0.00100
C2438       C  0.79153949  0.49970908  0.98937759    -0.11900
C2439       C  0.79321143  0.50219526  0.01077642     0.02200
C2440       C  0.76669197  0.50506114  0.02180445    -0.00100
C2441       C  0.74331360  0.01410220  0.01170606    -0.11900
C2442       C  0.74143521  0.01245739  0.99032048     0.02100
H2443       H  0.81219400  0.49776315  0.98109735     0.15100
H2444       H  0.72525744  0.01980072  0.02024745     0.15100
C2445       C  0.71496951  0.01839533  0.98067521     0.36700
C2446       C  0.82192200  0.50073537  0.02092330     0.36600
N2447       N  0.69382636  0.02331473  0.97301111    -0.43600
N2448       N  0.84506803  0.49967866  0.02896368    -0.43600
C2449       C  0.50992386  0.24760895  0.97659597    -0.00100
C2450       C  0.97192038  0.24678638  0.98873682    -0.11900
C2451       C  0.96863885  0.24451227  0.01010588     0.02200
C2452       C  0.50234000  0.24687342  0.01970711    -0.00100
C2453       C  0.52890607  0.24184001  0.01078243    -0.11900
C2454       C  0.53284898  0.24202801  0.98948337     0.02100
H2455       H  0.95215515  0.24915957  0.97984726     0.15100
H2456       H  0.54651815  0.23740379  0.02051305     0.15100
C2457       C  0.56112395  0.23710902  0.98148507     0.36700
C2458       C  0.93989092  0.24722665  0.01945520     0.36600
N2459       N  0.58373692  0.23310248  0.97506643    -0.43600
N2460       N  0.91694528  0.24956827  0.02692452    -0.43600
C2461       C  0.49434380  0.40300589  0.07888718    -0.00100
C2462       C  0.00948944  0.39126635  0.09218080    -0.11900
C2463       C  0.01181992  0.36043723  0.09295192     0.02200
C2464       C  0.49718828  0.33948471  0.07928679    -0.00100
C2465       C  0.46942429  0.34099976  0.06921653    -0.11900
C2466       C  0.46785084  0.37232938  0.06884000     0.02100
H2467       H  0.02961493  0.41499475  0.09987767     0.15100
H2468       H  0.44889539  0.31761654  0.06145892     0.15100
C2469       C  0.43940325  0.37239537  0.05746287     0.36700
C2470       C  0.04048886  0.36140313  0.10464494     0.36600
N2471       N  0.41664830  0.37237108  0.04826469    -0.43600
N2472       N  0.06340235  0.36222039  0.11408718    -0.43600
C2473       C  0.48516535  0.08333001  0.08415733    -0.00100
C2474       C  0.51784579  0.11430241  0.08791096    -0.11900
C2475       C  0.52101509  0.14789152  0.08769893     0.02200
C2476       C  0.49087621  0.15129769  0.08355310    -0.00100
C2477       C  0.96476846  0.11880269  0.09417386    -0.11900
C2478       C  0.96369278  0.08621598  0.09542659     0.02100
H2479       H  0.54135662  0.11243099  0.09105756     0.15100
H2480       H  0.94268391  0.12100118  0.10027652     0.15100
C2481       C  0.93358098  0.05723151  0.10550009     0.36700
C2482       C  0.55565935  0.17802079  0.09199079     0.36600
N2483       N  0.90957665  0.03398441  0.11364019    -0.43600
N2484       N  0.58350577  0.20199311  0.09545551    -0.43600
C2485       C  0.49603902  0.50216605  0.02114924    -0.00100
C2486       C  0.52483731  0.50304528  0.01075462    -0.11900
C2487       C  0.52707060  0.50482983  0.98932992     0.02200
C2488       C  0.50013002  0.50601751  0.97784866    -0.00100
C2489       C  0.96616012  0.99248370  0.99102576    -0.11900
C2490       C  0.96294214  0.98841735  0.01237269     0.02100
H2491       H  0.54557144  0.50195991  0.01938976     0.15100
H2492       H  0.94314067  0.98741289  0.98199791     0.15100
C2493       C  0.92875110  0.97823730  0.02136206     0.36700
C2494       C  0.55787028  0.50654124  0.97969109     0.36600
N2495       N  0.90126456  0.96998537  0.02847613    -0.43600
N2496       N  0.58260746  0.50795928  0.97202146    -0.43600
C2497       C  0.73989373  0.23942635  0.48161667    -0.00100
C2498       C  0.76415473  0.27083779  0.49177253    -0.11900
C2499       C  0.76566433  0.27294673  0.51313672     0.02200
C2500       C  0.74233654  0.24302947  0.52497913    -0.00100
C2501       C  0.71796149  0.21160462  0.51483801    -0.11900
C2502       C  0.71645272  0.20953602  0.49342759     0.02100
H2503       H  0.78255970  0.29395912  0.48298606     0.15100
H2504       H  0.69960931  0.18850791  0.52365807     0.15100
C2505       C  0.68997987  0.17663410  0.48419154     0.36700
C2506       C  0.79216419  0.30601004  0.52224340     0.36600
N2507       N  0.66876913  0.15022254  0.47683128    -0.43600
N2508       N  0.81342772  0.33257924  0.52943833    -0.43600
C2509       C  0.74753637  0.00748709  0.47917366    -0.00100
C2510       C  0.74714275  0.48624342  0.48816830    -0.11900
C2511       C  0.74523671  0.48336532  0.50948629     0.02200
C2512       C  0.75536018  0.51386777  0.52177444    -0.00100
C2513       C  0.76547089  0.03665504  0.51257462    -0.11900
C2514       C  0.76663432  0.03870636  0.49110756     0.02100
H2515       H  0.73892980  0.46233022  0.47920231     0.15100
H2516       H  0.78049924  0.06089918  0.52136945     0.15100
C2517       C  0.78818418  0.07327128  0.48201714     0.36700
C2518       C  0.73391432  0.44870285  0.51802476     0.36600
N2519       N  0.80552723  0.10110155  0.47489696    -0.43600
N2520       N  0.72508534  0.42091858  0.52474101    -0.43600
C2521       C  0.49083169  0.24218950  0.52049539    -0.00100
C2522       C  0.98607340  0.21341468  0.51203011    -0.11900
C2523       C  0.98576436  0.21074687  0.49067740     0.02200
C2524       C  0.48953431  0.23744892  0.47697553    -0.00100
C2525       C  0.50991524  0.27022685  0.48702976    -0.11900
C2526       C  0.51055810  0.27298097  0.50841309     0.02100
H2527       H  0.98025157  0.19022896  0.52105800     0.15100
H2528       H  0.52564866  0.29415387  0.47815910     0.15100
C2529       C  0.53184492  0.30794238  0.51722870     0.36700
C2530       C  0.97806411  0.17707408  0.48193226     0.36600
N2531       N  0.54881578  0.33608602  0.52413299    -0.43600
N2532       N  0.97183453  0.15000829  0.47503931    -0.43600
C2533       C  0.89915436  0.23813367  0.41917668    -0.00100
C2534       C  0.89884732  0.26891369  0.41315474    -0.11900
C2535       C  0.86772766  0.27085966  0.41397262     0.02200
C2536       C  0.83552203  0.24110225  0.42052212    -0.00100
C2537       C  0.83594671  0.21050251  0.42687656    -0.11900
C2538       C  0.86732789  0.20893717  0.42658277     0.02100
H2539       H  0.92308995  0.29171809  0.40768211     0.15100
H2540       H  0.81173711  0.18780035  0.43247057     0.15100
C2541       C  0.86616230  0.17763841  0.43487209     0.36700
C2542       C  0.87010347  0.30385157  0.40788305     0.36600
N2543       N  0.86528209  0.15268679  0.44167243    -0.43600
N2544       N  0.87253944  0.33062680  0.40324863    -0.43600
C2545       C  0.64909165  0.23899400  0.41772947    -0.00100
C2546       C  0.61734988  0.20677163  0.42093900    -0.11900
C2547       C  0.58422708  0.20482485  0.42016334     0.02200
C2548       C  0.58225604  0.23564345  0.41571743    -0.00100
C2549       C  0.61397868  0.26778959  0.41249319    -0.11900
C2550       C  0.64705640  0.26986498  0.41357593     0.02100
H2551       H  0.61830622  0.18290097  0.42439893     0.15100
H2552       H  0.61310757  0.29173469  0.40912059     0.15100
C2553       C  0.67813078  0.30423928  0.41024578     0.36700
C2554       C  0.55313801  0.17101494  0.42469397     0.36600
N2555       N  0.70288875  0.33190974  0.40767096    -0.43600
N2556       N  0.52838051  0.14388580  0.42842746    -0.43600
C2557       C  0.50330630  0.01669317  0.47738824    -0.00100
C2558       C  0.00292892  0.48440937  0.48831675    -0.11900
C2559       C  0.00229101  0.48255006  0.50973895     0.02200
C2560       C  0.50180238  0.01322787  0.52072719    -0.00100
C2561       C  0.53174791  0.03978138  0.51043558    -0.11900
C2562       C  0.53277263  0.04164318  0.48895549     0.02100
H2563       H  0.99363354  0.46004399  0.47962461     0.15100
H2564       H  0.55474168  0.05865977  0.51918342     0.15100
C2565       C  0.56498307  0.06819441  0.47917390     0.36700
C2566       C  0.99026254  0.44816921  0.51887216     0.36600
N2567       N  0.59075083  0.08932184  0.47121597    -0.43600
N2568       N  0.98073550  0.42055341  0.52604911    -0.43600
C2569       C  0.90397873  0.00135706  0.41954772    -0.00100
C2570       C  0.90223102  0.02915053  0.42944932    -0.11900
C2571       C  0.87080246  0.03054496  0.42958477     0.02200
C2572       C  0.84035277  0.00377500  0.41950917    -0.00100
C2573       C  0.85235451  0.48470407  0.41306074    -0.11900
C2574       C  0.88341389  0.48262236  0.41301283     0.02100
H2575       H  0.92542260  0.04967359  0.43735272     0.15100
H2576       H  0.82764061  0.46163260  0.40833438     0.15100
C2577       C  0.88076452  0.44963230  0.40642777     0.36700
C2578       C  0.87030968  0.05896415  0.44085015     0.36600
N2579       N  0.87842733  0.42310776  0.40116020    -0.43600
N2580       N  0.86999549  0.08169165  0.44995793    -0.43600
C2581       C  0.59422164  0.01155424  0.41540444    -0.00100
C2582       C  0.59290156  0.97952630  0.42039417    -0.11900
C2583       C  0.62358159  0.97674600  0.42060592     0.02200
C2584       C  0.65688312  0.00661973  0.41568689    -0.00100
C2585       C  0.66842517  0.54855693  0.42070521    -0.11900
C2586       C  0.63683163  0.54969063  0.42081689     0.02100
H2587       H  0.56772632  0.95639847  0.42440714     0.15100
H2588       H  0.69253926  0.57124815  0.42645030     0.15100
C2589       C  0.63798165  0.58131808  0.42874961     0.36700
C2590       C  0.61972076  0.94296389  0.42637206     0.36600
N2591       N  0.63907526  0.60674250  0.43508002    -0.43600
N2592       N  0.61643311  0.91581714  0.43098286    -0.43600
C2593       C  0.75928205  0.25400306  0.14856350    -0.00100
C2594       C  0.72688909  0.24342137  0.15867699    -0.11900
C2595       C  0.72418426  0.24107580  0.18000320     0.02200
C2596       C  0.75447585  0.24913175  0.19196365    -0.00100
C2597       C  0.78706776  0.26029463  0.18190766    -0.11900
C2598       C  0.78979849  0.26292011  0.16049934     0.02100
H2599       H  0.70325516  0.23703870  0.14989258     0.15100
H2600       H  0.81065700  0.26682731  0.19077290     0.15100
C2601       C  0.82420966  0.27438724  0.15142143     0.36700
C2602       C  0.68992619  0.23099774  0.18892250     0.36600
N2603       N  0.85189380  0.28371598  0.14425423    -0.43600
N2604       N  0.66244222  0.22298032  0.19596841    -0.43600
C2605       C  0.74640036  0.24026175  0.31517497    -0.00100
C2606       C  0.77482637  0.26749595  0.32605359    -0.11900
C2607       C  0.77475549  0.26844621  0.34744769     0.02200
C2608       C  0.74601678  0.24125748  0.35844492    -0.00100
C2609       C  0.71778456  0.21371204  0.34758997    -0.11900
C2610       C  0.71751772  0.21313901  0.32615528     0.02100
H2611       H  0.79705257  0.28853221  0.31779884     0.15100
H2612       H  0.69554064  0.19276503  0.35588039     0.15100
C2613       C  0.68759034  0.18400782  0.31597836     0.36700
C2614       C  0.80490649  0.29739648  0.35753632     0.36600
N2615       N  0.66349913  0.16069403  0.30788651    -0.43600
N2616       N  0.82914319  0.32091955  0.36537003    -0.43600
C2617       C  0.75297352  0.40283019  0.25315985    -0.00100
C2618       C  0.78446218  0.40213906  0.24925914    -0.11900
C2619       C  0.78529080  0.37044723  0.24966402     0.02200
C2620       C  0.75391529  0.33807694  0.25411837    -0.00100
C2621       C  0.72248273  0.33876968  0.25822413    -0.11900
C2622       C  0.72169098  0.37053636  0.25785750     0.02100
H2623       H  0.80872722  0.42652145  0.24556038     0.15100
H2624       H  0.69824873  0.31432507  0.26187396     0.15100
C2625       C  0.68842611  0.36884711  0.26274413     0.36700
C2626       C  0.81869787  0.37232901  0.24487557     0.36600
N2627       N  0.66166519  0.36724278  0.26668415    -0.43600
N2628       N  0.84557018  0.37410017  0.24103503    -0.43600
C2629       C  0.74827222  0.14997514  0.25273802    -0.00100
C2630       C  0.77992280  0.15018691  0.25748164    -0.11900
C2631       C  0.78170024  0.11900480  0.25738603     0.02200
C2632       C  0.75115377  0.08623654  0.25240066    -0.00100
C2633       C  0.71936116  0.08590971  0.24788648    -0.11900
C2634       C  0.71761262  0.11717473  0.24796185     0.02100
H2635       H  0.80364319  0.17493339  0.26142333     0.15100
H2636       H  0.69568565  0.06111508  0.24396091     0.15100
C2637       C  0.68411979  0.11448887  0.24257717     0.36700
C2638       C  0.81528008  0.12185764  0.26278726     0.36600
N2639       N  0.65720380  0.11213348  0.23823764    -0.43600
N2640       N  0.84226748  0.12434315  0.26708761    -0.43600
C2641       C  0.76329798  0.50520062  0.14513489    -0.00100
C2642       C  0.73027498  0.00127398  0.15544914    -0.11900
C2643       C  0.72717776  0.99871426  0.17684579     0.02200
C2644       C  0.75840073  0.49718052  0.18839240    -0.00100
C2645       C  0.79139437  0.51834189  0.17873534    -0.11900
C2646       C  0.79414993  0.52266440  0.15746884     0.02100
H2647       H  0.70916932  0.00116840  0.14654793     0.15100
H2648       H  0.81538676  0.53227508  0.18785384     0.15100
C2649       C  0.82905767  0.54581687  0.14903909     0.36700
C2650       C  0.69612127  0.99697253  0.18614120     0.36600
N2651       N  0.85708114  0.56443847  0.14238750    -0.43600
N2652       N  0.67121797  0.99565122  0.19351128    -0.43600
C2653       C  0.75074451  0.00024148  0.35556175    -0.00100
C2654       C  0.73078828  0.48385135  0.34541294    -0.11900
C2655       C  0.72886809  0.47942114  0.32411563     0.02200
C2656       C  0.75726082  0.50384493  0.31170088    -0.00100
C2657       C  0.78056151  0.01945416  0.32257790    -0.11900
C2658       C  0.78117114  0.02293757  0.34395420     0.02100
H2659       H  0.70885751  0.46486898  0.35478364     0.15100
H2660       H  0.80413822  0.03730101  0.31391737     0.15100
C2661       C  0.81383601  0.04904968  0.35359685     0.36700
C2662       C  0.69813433  0.44873387  0.31562014     0.36600
N2663       N  0.84008292  0.06988512  0.36129343    -0.43600
N2664       N  0.67353663  0.42406411  0.30886375    -0.43600
C2665       C  0.48869767  0.24720159  0.18621156    -0.00100
C2666       C  0.96068087  0.21371954  0.17814217    -0.11900
C2667       C  0.96010024  0.21198991  0.15671061     0.02200
C2668       C  0.48837031  0.24601705  0.14274290    -0.00100
C2669       C  0.51818135  0.27159110  0.15360517    -0.11900
C2670       C  0.51860297  0.27255373  0.17503872     0.02100
H2671       H  0.93967720  0.19205217  0.18674815     0.15100
H2672       H  0.54135778  0.29124761  0.14530808     0.15100
C2673       C  0.54981555  0.30056236  0.18495791     0.36700
C2674       C  0.93175913  0.18073858  0.14702428     0.36600
N2675       N  0.57487449  0.32312013  0.19279210    -0.43600
N2676       N  0.90909675  0.15563009  0.13929085    -0.43600
C2677       C  0.48905362  0.23896615  0.35324271    -0.00100
C2678       C  0.96048251  0.21027198  0.34487501    -0.11900
C2679       C  0.95886851  0.20987375  0.32343542     0.02200
C2680       C  0.48540082  0.23954950  0.30983178    -0.00100
C2681       C  0.51482925  0.26631565  0.32038293    -0.11900
C2682       C  0.51676415  0.26648370  0.34179209     0.02100
H2683       H  0.93769372  0.19089582  0.35355241     0.15100
H2684       H  0.53646934  0.28750828  0.31186641     0.15100
C2685       C  0.54801400  0.29487826  0.35145545     0.36700
C2686       C  0.92720342  0.18209464  0.31376792     0.36600
N2687       N  0.57302275  0.31774094  0.35914800    -0.43600
N2688       N  0.90184056  0.15967899  0.30610017    -0.43600
C2689       C  0.49195469  0.40349130  0.25016252    -0.00100
C2690       C  0.95831379  0.36685466  0.24467931    -0.11900
C2691       C  0.95734512  0.33426170  0.24418337     0.02200
C2692       C  0.48763487  0.33628142  0.24933150    -0.00100
C2693       C  0.51990241  0.36731357  0.25377835    -0.11900
C2694       C  0.52239568  0.40061201  0.25418841     0.02100
H2695       H  0.93598723  0.36850116  0.23855587     0.15100
H2696       H  0.54350267  0.36568568  0.25708123     0.15100
C2697       C  0.55651746  0.43100381  0.25911530     0.36700
C2698       C  0.92651945  0.30438592  0.23513738     0.36600
N2699       N  0.58394638  0.45525198  0.26301990    -0.43600
N2700       N  0.90178616  0.28053142  0.22786989    -0.43600
C2701       C  0.49051696  0.08751319  0.24638722    -0.00100
C2702       C  0.95945386  0.08351566  0.24566866    -0.11900
C2703       C  0.95808204  0.11483127  0.24442568     0.02200
C2704       C  0.48669159  0.15067295  0.24639539    -0.00100
C2705       C  0.51786663  0.15101250  0.24019172    -0.11900
C2706       C  0.52003743  0.12000129  0.23999479     0.02100
H2707       H  0.93584876  0.05850620  0.24153769     0.15100
H2708       H  0.54085762  0.17579078  0.23525514     0.15100
C2709       C  0.55261365  0.12248289  0.23265190     0.36700
C2710       C  0.92515813  0.11207717  0.23763685     0.36600
N2711       N  0.57875388  0.12465106  0.22669544    -0.43600
N2712       N  0.89866841  0.10964590  0.23223673    -0.43600
C2713       C  0.98333921  0.48397182  0.14436227    -0.00100
C2714       C  0.96139521  0.98915451  0.15831473    -0.11900
C2715       C  0.96048355  0.99016487  0.17977294     0.02200
C2716       C  0.98224683  0.48378301  0.18803939    -0.00100
C2717       C  0.51570183  0.48996160  0.17722101    -0.11900
C2718       C  0.51650930  0.48856710  0.15583441     0.02100
H2719       H  0.94119835  0.99104546  0.14957621     0.15100
H2720       H  0.53780111  0.49163930  0.18585502     0.15100
C2721       C  0.54624441  0.48789317  0.14631868     0.36700
C2722       C  0.93310478  0.99487494  0.18938109     0.36600
N2723       N  0.56999466  0.48715838  0.13874360    -0.43600
N2724       N  0.91127901  0.99886273  0.19704153    -0.43600
C2725       C  0.50058758  0.00822311  0.35408411    -0.00100
C2726       C  0.96253419  0.97637152  0.34861699    -0.11900
C2727       C  0.95991601  0.97348267  0.32724960     0.02200
C2728       C  0.49561200  0.00134771  0.31082832    -0.00100
C2729       C  0.53011714  0.53093731  0.32003845    -0.11900
C2730       C  0.53329841  0.53459971  0.34140618     0.02100
H2731       H  0.93910218  0.96053344  0.35792733     0.15100
H2732       H  0.55126384  0.55051069  0.31047955     0.15100
C2733       C  0.56577370  0.56320706  0.34987654     0.36700
C2734       C  0.92555686  0.94896573  0.31867009     0.36600
N2735       N  0.59190444  0.58595002  0.35666877    -0.43600
N2736       N  0.89789023  0.92934735  0.31194088    -0.43600
O2737       O  0.95794288  0.93157096  0.25354429    -0.74300
O2738       O  0.95830934  0.51888651  0.24983535    -0.74400
O2739       O  0.95806936  0.97519963  0.22401556    -0.74400
O2740       O  0.95982404  0.97712205  0.28264102    -0.74500
O2741       O  0.52595114  0.51428756  0.27742793    -0.74400
O2742       O  0.51920617  0.50787871  0.21895117    -0.74400
O2743       O  0.52276302  0.55515551  0.24732650    -0.74300
O2744       O  0.52142658  0.96665660  0.24953193    -0.74400
Ni2745     Ni  0.95686911  0.97504135  0.25335684     1.25400
Ni2746     Ni  0.52465435  0.51217899  0.24808337     1.25400
C2747       C  0.49190254  0.93735572  0.25050412     0.87900
C2748       C  0.49329660  0.55510609  0.24817619     0.87800
C2749       C  0.98740852  0.98909451  0.21405618     0.87800
C2750       C  0.49744340  0.50034922  0.28818521     0.88000
O2751       O  0.51907403  0.71573214  0.25023759    -0.74300
O2752       O  0.51898688  0.80353209  0.25199198    -0.74400
O2753       O  0.51799955  0.75776587  0.28038026    -0.74400
O2754       O  0.52017444  0.76141728  0.22189815    -0.74500
O2755       O  0.95478861  0.72443136  0.21908758    -0.74400
O2756       O  0.95441879  0.72163766  0.27787006    -0.74400
O2757       O  0.95416383  0.76690324  0.24943446    -0.74300
O2758       O  0.95449319  0.67944228  0.24766648    -0.74400
Ni2759     Ni  0.52115604  0.76069040  0.25116658     1.25400
Ni2760     Ni  0.95232778  0.72211433  0.24849608     1.25400
C2761       C  0.48946523  0.68638682  0.24978430     0.87900
C2762       C  0.48932680  0.80315931  0.25151062     0.87800
C2763       C  0.48811361  0.74191587  0.28978295     0.87800
C2764       C  0.49108064  0.74707028  0.21175282     0.88000
O2765       O  0.72970140  0.52866351  0.24859127    -0.74300
O2766       O  0.72269735  0.93522440  0.24912485    -0.74400
O2767       O  0.72128434  0.97753969  0.27937100    -0.74400
O2768       O  0.72327228  0.98092978  0.22068294    -0.74500
O2769       O  0.78684807  0.50923352  0.22105722    -0.74400
O2770       O  0.78652592  0.51333926  0.27949646    -0.74400
O2771       O  0.78185404  0.96527108  0.25002716    -0.74300
O2772       O  0.78894129  0.55597416  0.24903133    -0.74400
Ni2773     Ni  0.72016335  0.97797782  0.25000017     1.25400
Ni2774     Ni  0.78875506  0.51205558  0.25029285     1.25400
C2775       C  0.76008015  0.55710652  0.24851269     0.87900
C2776       C  0.75245836  0.93576812  0.24938560     0.87800
C2777       C  0.75048741  0.99256421  0.28946138     0.87800
C2778       C  0.75325597  0.99671784  0.21137597     0.88000
O2779       O  0.79009492  0.71932841  0.25145624    -0.74300
O2780       O  0.78779595  0.80599298  0.25389116    -0.74400
O2781       O  0.78358897  0.75813733  0.28195457    -0.74400
O2782       O  0.79430879  0.76728621  0.22357526    -0.74500
O2783       O  0.73536308  0.73747533  0.22032741    -0.74400
O2784       O  0.72475508  0.72750047  0.27855278    -0.74400
O2785       O  0.72890200  0.77572492  0.25078108    -0.74300
O2786       O  0.73119721  0.68921132  0.24768217    -0.74400
Ni2787     Ni  0.79105377  0.76374054  0.25289133     1.25400
Ni2788     Ni  0.72796949  0.73136500  0.24925234     1.25400
C2789       C  0.76099603  0.69001249  0.24885724     0.87900
C2790       C  0.75806253  0.80530159  0.25241667     0.87800
C2791       C  0.75245934  0.74125651  0.28995054     0.87800
C2792       C  0.76642831  0.75443272  0.21233711     0.88000
O2793       O  0.93822509  0.97228349  0.42018685    -0.74300
O2794       O  0.53085397  0.98332695  0.41628672    -0.74400
O2795       O  0.98344150  0.97415397  0.44916504    -0.74400
O2796       O  0.98149150  0.97193327  0.39071187    -0.74500
O2797       O  0.52205743  0.54253394  0.38560197    -0.74400
O2798       O  0.52660230  0.54736412  0.44440233    -0.74400
O2799       O  0.56915302  0.54736100  0.41413524    -0.74300
O2800       O  0.97925774  0.54266453  0.41692967    -0.74400
Ni2801     Ni  0.98161783  0.97105589  0.41994409     1.25400
Ni2802     Ni  0.52519969  0.54717035  0.41494110     1.25400
C2803       C  0.95027993  0.51285117  0.41799387     0.87900
C2804       C  0.57030746  0.51857647  0.41449635     0.87800
C2805       C  0.51414944  0.51858092  0.45475281     0.87800
C2806       C  0.50750986  0.51211542  0.37672993     0.88000
O2807       O  0.95815365  0.75614814  0.41437405    -0.74300
O2808       O  0.54918513  0.76307318  0.41773826    -0.74400
O2809       O  0.50596205  0.76440326  0.38847974    -0.74400
O2810       O  0.50443799  0.76171951  0.44685902    -0.74500
O2811       O  0.97019367  0.69529483  0.44348773    -0.74400
O2812       O  0.97278239  0.69756989  0.38487717    -0.74400
O2813       O  0.51946369  0.70399495  0.41652482    -0.74300
O2814       O  0.92782903  0.69703778  0.41373796    -0.74400
Ni2815     Ni  0.50617153  0.76510489  0.41772872     1.25400
Ni2816     Ni  0.97043092  0.69431451  0.41414385     1.25400
C2817       C  0.92859020  0.72684738  0.41387947     0.87900
C2818       C  0.54884526  0.73345990  0.41714747     0.87800
C2819       C  0.49109928  0.73532564  0.37829742     0.87800
C2820       C  0.48994648  0.73183640  0.45614151     0.88000
O2821       O  0.69003618  0.97610793  0.41688982    -0.74300
O2822       O  0.77724587  0.97489807  0.41847710    -0.74400
O2823       O  0.73323907  0.97722519  0.44692674    -0.74400
O2824       O  0.73391538  0.97347607  0.38843772    -0.74500
O2825       O  0.77664574  0.54494375  0.38646064    -0.74400
O2826       O  0.77537322  0.54849660  0.44534520    -0.74400
O2827       O  0.81967337  0.54645853  0.41686961    -0.74300
O2828       O  0.73238383  0.54739743  0.41486627    -0.74400
Ni2829     Ni  0.73253029  0.97335416  0.41771653     1.25400
Ni2830     Ni  0.77710886  0.54899098  0.41584783     1.25400
C2831       C  0.70292390  0.51794331  0.41489819     0.87900
C2832       C  0.81910477  0.51680778  0.41776442     0.87800
C2833       C  0.76040055  0.51933827  0.45544085     0.87800
C2834       C  0.76137722  0.51464146  0.37743220     0.88000
O2835       O  0.68224813  0.70540360  0.41820153    -0.74300
O2836       O  0.76922529  0.70384427  0.41658927    -0.74400
O2837       O  0.72651129  0.70368691  0.44681345    -0.74400
O2838       O  0.72543802  0.70567764  0.38797625    -0.74500
O2839       O  0.75656388  0.76481210  0.38894403    -0.74400
O2840       O  0.75592882  0.76287519  0.44750792    -0.74400
O2841       O  0.79955786  0.76292235  0.41783933    -0.74300
O2842       O  0.71248012  0.76453503  0.41859164    -0.74400
Ni2843     Ni  0.72468456  0.70252526  0.41737705     1.25400
Ni2844     Ni  0.75715215  0.76588048  0.41825113     1.25400
C2845       C  0.68293410  0.73517652  0.41867698     0.87900
C2846       C  0.79880689  0.73315192  0.41697090     0.87800
C2847       C  0.74155934  0.73302110  0.45682563     0.87800
C2848       C  0.74187883  0.73567153  0.37878812     0.88000
O2849       O  0.96004358  0.93058839  0.08535846    -0.74300
O2850       O  0.95347181  0.51473428  0.08306162    -0.74400
O2851       O  0.96175150  0.97646953  0.05663789    -0.74400
O2852       O  0.95988104  0.97373248  0.11537665    -0.74500
O2853       O  0.51964059  0.50554140  0.11245908    -0.74400
O2854       O  0.52356585  0.51275213  0.05400747    -0.74400
O2855       O  0.52090463  0.55262303  0.08505485    -0.74300
O2856       O  0.51382835  0.96116587  0.08099819    -0.74400
Ni2857     Ni  0.95870926  0.97394980  0.08599780     1.25400
Ni2858     Ni  0.52374915  0.51027644  0.08329482     1.25400
C2859       C  0.98943058  0.93039188  0.08540050     0.87900
C2860       C  0.98338547  0.54377368  0.08293127     0.87800
C2861       C  0.99160162  0.99196131  0.04716077     0.87800
C2862       C  0.98925762  0.98749849  0.12528283     0.88000
O2863       O  0.52023322  0.80207720  0.08258507    -0.74300
O2864       O  0.52189736  0.71533281  0.08483979    -0.74400
O2865       O  0.52193032  0.75729575  0.05450612    -0.74400
O2866       O  0.52012940  0.76018235  0.11307760    -0.74500
O2867       O  0.95920803  0.72295426  0.10977570    -0.74400
O2868       O  0.96651658  0.72873237  0.05121058    -0.74400
O2869       O  0.96240241  0.68164244  0.07975147    -0.74300
O2870       O  0.96300585  0.76965433  0.08133235    -0.74400
Ni2871     Ni  0.52314958  0.75978014  0.08379447     1.25400
Ni2872     Ni  0.96068854  0.72466474  0.08040635     1.25400
C2873       C  0.49051245  0.80149347  0.08194219     0.87900
C2874       C  0.49260307  0.68576594  0.08461077     0.87800
C2875       C  0.49257274  0.74235825  0.04458300     0.87800
C2876       C  0.49025842  0.74548781  0.12255385     0.88000
O2877       O  0.73732013  0.53844139  0.08294437    -0.74300
O2878       O  0.73881027  0.94979774  0.08315123    -0.74400
O2879       O  0.73323139  0.99079332  0.11244303    -0.74400
O2880       O  0.73718763  0.99288441  0.05395175    -0.74500
O2881       O  0.79596471  0.52168545  0.05433336    -0.74400
O2882       O  0.79420182  0.52219499  0.11290809    -0.74400
O2883       O  0.79779345  0.98232767  0.08467581    -0.74300
O2884       O  0.79645579  0.56675620  0.08334051    -0.74400
Ni2885     Ni  0.73322105  0.99072732  0.08313515     1.25400
Ni2886     Ni  0.79724738  0.52320173  0.08365652     1.25400
C2887       C  0.76729146  0.56737502  0.08306766     0.87900
C2888       C  0.76937263  0.95205113  0.08401944     0.87800
C2889       C  0.76213757  0.00652086  0.12274772     0.87800
C2890       C  0.76733637  0.00872793  0.04486096     0.88000
O2891       O  0.74567915  0.74809507  0.11464223    -0.74300
O2892       O  0.74143394  0.74600627  0.05624286    -0.74400
O2893       O  0.74417359  0.70348946  0.08533384    -0.74400
O2894       O  0.74309212  0.79042734  0.08561347    -0.74500
O2895       O  0.80215186  0.82083896  0.08440627    -0.74400
O2896       O  0.80331890  0.73327489  0.08396540    -0.74400
O2897       O  0.80058132  0.77606625  0.05468923    -0.74300
O2898       O  0.80486835  0.77798063  0.11358494    -0.74400
Ni2899     Ni  0.74157621  0.74594827  0.08550826     1.25400
Ni2900     Ni  0.80491788  0.77814886  0.08409313     1.25400
C2901       C  0.77575068  0.76334170  0.12381545     0.87900
C2902       C  0.77020578  0.76071255  0.04575803     0.87800
C2903       C  0.77381065  0.70385828  0.08464297     0.87800
C2904       C  0.77225834  0.82005380  0.08521466     0.88000
O2905       O  0.94338361  0.97882296  0.91827403    -0.74300
O2906       O  0.53038089  0.56950658  0.91794556    -0.74400
O2907       O  0.97302656  0.52177782  0.88806042    -0.74400
O2908       O  0.97331612  0.51593000  0.94657876    -0.74500
O2909       O  0.50410109  0.98774300  0.94435877    -0.74400
O2910       O  0.50299260  0.99258620  0.88581738    -0.74400
O2911       O  0.55999236  0.53995520  0.91647546    -0.74300
O2912       O  0.97345078  0.94973268  0.91802092    -0.74400
Ni2913     Ni  0.97227646  0.52007100  0.91742391     1.25400
Ni2914     Ni  0.50460860  0.98904326  0.91499898     1.25400
C2915       C  0.94395810  0.94969395  0.91761302     0.87900
C2916       C  0.55967885  0.56918450  0.91738228     0.87800
C2917       C  0.48739980  0.00751508  0.87718896     0.87800
C2918       C  0.48830317  0.00062948  0.95493700     0.88000
O2919       O  0.56142965  0.77905080  0.91788045    -0.74300
O2920       O  0.98298429  0.69389280  0.91520855    -0.74400
O2921       O  0.51730604  0.73844234  0.88751170    -0.74400
O2922       O  0.51527062  0.73412809  0.94595008    -0.74500
O2923       O  0.99521710  0.76711529  0.94410572    -0.74400
O2924       O  0.99827607  0.76720061  0.88545467    -0.74400
O2925       O  0.95294084  0.72292466  0.91432105    -0.74300
O2926       O  0.53408223  0.81070265  0.91869275    -0.74400
Ni2927     Ni  0.51741950  0.73529389  0.91669532     1.25400
Ni2928     Ni  0.99574686  0.76821278  0.91475726     1.25400
C2929       C  0.56273340  0.80907547  0.91884389     0.87900
C2930       C  0.95345865  0.69373924  0.91472177     0.87800
C2931       C  0.50317805  0.75407864  0.87811698     0.87800
C2932       C  0.50088593  0.74893206  0.95606469     0.88000
O2933       O  0.73063040  0.93705083  0.91966250    -0.74300
O2934       O  0.82427441  0.52802657  0.91730864    -0.74400
O2935       O  0.77676319  0.98478380  0.94722360    -0.74400
O2936       O  0.77293589  0.97753193  0.88859796    -0.74500
O2937       O  0.75092823  0.51165781  0.88741550    -0.74400
O2938       O  0.74958732  0.51336305  0.94570347    -0.74400
O2939       O  0.79388110  0.55671601  0.91651905    -0.74300
O2940       O  0.70124567  0.96673438  0.91898127    -0.74400
Ni2941     Ni  0.77586620  0.97999758  0.91794026     1.25400
Ni2942     Ni  0.74922675  0.51352352  0.91652498     1.25400
C2943       C  0.70126899  0.93735511  0.91978052     0.87900
C2944       C  0.82353281  0.55707361  0.91691571     0.87800
C2945       C  0.76280051  0.00106795  0.95629975     0.87800
C2946       C  0.75701932  0.99076542  0.87856297     0.88000
O2947       O  0.78342529  0.81585692  0.91827649    -0.74300
O2948       O  0.69479558  0.72904067  0.91952898    -0.74400
O2949       O  0.74136213  0.77222460  0.94829216    -0.74400
O2950       O  0.73687623  0.77258756  0.88951315    -0.74500
O2951       O  0.76604064  0.74256609  0.88804802    -0.74400
O2952       O  0.77036062  0.74210189  0.94661584    -0.74400
O2953       O  0.72361423  0.69870022  0.91800383    -0.74300
O2954       O  0.81226287  0.78558171  0.91672180    -0.74400
Ni2955     Ni  0.73806298  0.77350232  0.91897169     1.25400
Ni2956     Ni  0.76901463  0.74109354  0.91727489     1.25400
C2957       C  0.81249694  0.81508778  0.91742364     0.87900
C2958       C  0.69460101  0.69953561  0.91901437     0.87800
C2959       C  0.75677028  0.75728170  0.95714538     0.87800
C2960       C  0.75125896  0.75801839  0.87911140     0.88000
O2961       O  0.98081446  0.97424186  0.61581057    -0.74300
O2962       O  0.98220366  0.97280075  0.55718354    -0.74400
O2963       O  0.52904407  0.98001098  0.58258005    -0.74400
O2964       O  0.93844144  0.97484393  0.58588168    -0.74500
O2965       O  0.97812195  0.54409758  0.58083718    -0.74400
O2966       O  0.56500807  0.54282118  0.58631936    -0.74400
O2967       O  0.52725766  0.54538312  0.55404707    -0.74300
O2968       O  0.51693945  0.54382981  0.61249794    -0.74400
Ni2969     Ni  0.98042684  0.97132712  0.58650678     1.25400
Ni2970     Ni  0.52334636  0.54675850  0.58332434     1.25400
C2971       C  0.49927779  0.51403455  0.62175686     0.87900
C2972       C  0.51299349  0.51601619  0.54405357     0.87800
C2973       C  0.56372428  0.51279803  0.58699511     0.87800
C2974       C  0.94847267  0.51488536  0.58030513     0.88000
O2975       O  0.96662999  0.76250880  0.58092989    -0.74300
O2976       O  0.55718941  0.76817152  0.58346768    -0.74400
O2977       O  0.51292257  0.76681294  0.55405023    -0.74400
O2978       O  0.51357506  0.77039779  0.61239189    -0.74500
O2979       O  0.98144046  0.70457344  0.61130124    -0.74400
O2980       O  0.97828996  0.70081493  0.55262758    -0.74400
O2981       O  0.52727040  0.70908559  0.58440077    -0.74300
O2982       O  0.93636956  0.70343676  0.58240156    -0.74400
Ni2983     Ni  0.51444249  0.77064500  0.58316879     1.25400
Ni2984     Ni  0.97883075  0.70053413  0.58201989     1.25400
C2985       C  0.93710798  0.73321666  0.58191729     0.87900
C2986       C  0.55671005  0.73848659  0.58385776     0.87800
C2987       C  0.49714376  0.73684462  0.54480368     0.87800
C2988       C  0.49826076  0.74152758  0.62264312     0.88000
O2989       O  0.68864681  0.97398237  0.58546802    -0.74300
O2990       O  0.77606853  0.97331055  0.58380400    -0.74400
O2991       O  0.73361358  0.97322986  0.61394527    -0.74400
O2992       O  0.73144633  0.97406362  0.55533949    -0.74500
O2993       O  0.76774106  0.54104990  0.55511189    -0.74400
O2994       O  0.76906177  0.53594001  0.61369757    -0.74400
O2995       O  0.81267543  0.53957457  0.58288881    -0.74300
O2996       O  0.72384320  0.53745260  0.58599751    -0.74400
Ni2997     Ni  0.73133352  0.97155038  0.58463429     1.25400
Ni2998     Ni  0.76930088  0.54062460  0.58449619     1.25400
C2999       C  0.68899513  0.00356907  0.58554992     0.87900
C3000       C  0.80548967  0.00274387  0.58378796     0.87800
C3001       C  0.74928672  0.00264753  0.62381537     0.87800
C3002       C  0.74612524  0.00361006  0.54568346     0.88000
O3003       O  0.69053741  0.71108046  0.58555862    -0.74300
O3004       O  0.77787690  0.71018043  0.58487185    -0.74400
O3005       O  0.73602444  0.71336371  0.61465642    -0.74400
O3006       O  0.73261492  0.70813108  0.55584038    -0.74500
O3007       O  0.76221683  0.76726384  0.55440374    -0.74400
O3008       O  0.76591046  0.77244276  0.61291726    -0.74400
O3009       O  0.80792170  0.76923173  0.58314105    -0.74300
O3010       O  0.72047237  0.77014557  0.58407133    -0.74400
Ni3011     Ni  0.73320162  0.70856384  0.58530606     1.25400
Ni3012     Ni  0.76525353  0.77185863  0.58358911     1.25400
C3013       C  0.69103849  0.74074992  0.58494706     0.87900
C3014       C  0.80732126  0.73951218  0.58367735     0.87800
C3015       C  0.75141223  0.74384053  0.62347306     0.87800
C3016       C  0.74647419  0.73696979  0.54546549     0.88000
O3017       O  0.55462170  0.54081171  0.74685026    -0.74300
O3018       O  0.97209174  0.94992506  0.75384844    -0.74400
O3019       O  0.50291012  0.98965478  0.72060523    -0.74400
O3020       O  0.50380252  0.99414962  0.77920655    -0.74500
O3021       O  0.97097919  0.52225219  0.77890591    -0.74400
O3022       O  0.97268174  0.52344468  0.72014186    -0.74400
O3023       O  0.94127965  0.97827988  0.75458902    -0.74300
O3024       O  0.52663308  0.57188924  0.74819151    -0.74400
Ni3025     Ni  0.50440193  0.99085509  0.74996839     1.25400
Ni3026     Ni  0.97070636  0.52383343  0.74952169     1.25400
C3027       C  0.55542339  0.57062767  0.74713261     0.87900
C3028       C  0.94236547  0.94942892  0.75463026     0.87800
C3029       C  0.48781230  0.00355911  0.71041991     0.87800
C3030       C  0.48842004  0.00882018  0.78847707     0.88000
O3031       O  0.52728849  0.80868952  0.74893715    -0.74300
O3032       O  0.94997077  0.71789066  0.74836014    -0.74400
O3033       O  0.99510946  0.76387516  0.77670775    -0.74400
O3034       O  0.99270834  0.75926624  0.71815426    -0.74500
O3035       O  0.51083929  0.73237547  0.72146911    -0.74400
O3036       O  0.51153696  0.73687274  0.77978942    -0.74400
O3037       O  0.97948220  0.68831934  0.74917328    -0.74300
O3038       O  0.55579072  0.77815652  0.74991537    -0.74400
Ni3039     Ni  0.99289667  0.76266081  0.74739302     1.25400
Ni3040     Ni  0.51222916  0.73365596  0.75067789     1.25400
C3041       C  0.55632676  0.80786873  0.74937669     0.87900
C3042       C  0.95015527  0.68856184  0.74877033     0.87800
C3043       C  0.49736429  0.75268711  0.78909743     0.87800
C3044       C  0.49629807  0.74669591  0.71120400     0.88000
O3045       O  0.69380755  0.96737386  0.75059716    -0.74300
O3046       O  0.78538621  0.55641067  0.75040329    -0.74400
O3047       O  0.74034158  0.51253647  0.72163132    -0.74400
O3048       O  0.74399486  0.51127471  0.77987880    -0.74500
O3049       O  0.76638477  0.97750037  0.77968620    -0.74400
O3050       O  0.76818742  0.98485144  0.72130312    -0.74400
O3051       O  0.81612507  0.52813893  0.74875354    -0.74300
O3052       O  0.72291618  0.93746912  0.74900662    -0.74400
Ni3053     Ni  0.74104607  0.51279295  0.75082790     1.25400
Ni3054     Ni  0.76828317  0.98015549  0.75045398     1.25400
C3055       C  0.69363722  0.93789933  0.74940552     0.87900
C3056       C  0.81513170  0.55704514  0.74946601     0.87800
C3057       C  0.75416479  0.00122809  0.71259307     0.87800
C3058       C  0.75091887  0.99066867  0.79029536     0.88000
O3059       O  0.76483968  0.74311728  0.78121576    -0.74300
O3060       O  0.76722262  0.74139149  0.72259841    -0.74400
O3061       O  0.81042268  0.78584832  0.75215304    -0.74400
O3062       O  0.72157452  0.69888666  0.75152795    -0.74500
O3063       O  0.69292123  0.72923715  0.74987493    -0.74400
O3064       O  0.78153992  0.81614621  0.75159258    -0.74400
O3065       O  0.73925866  0.77246793  0.72132637    -0.74300
O3066       O  0.73493575  0.77240244  0.78015803    -0.74400
Ni3067     Ni  0.76704457  0.74125088  0.75193679     1.25400
Ni3068     Ni  0.73618091  0.77369965  0.75069685     1.25400
C3069       C  0.74937863  0.75782289  0.79036557     0.87900
C3070       C  0.75341716  0.75638784  0.71222275     0.87800
C3071       C  0.81061630  0.81537359  0.75205264     0.87800
C3072       C  0.69253607  0.69963064  0.75034509     0.88000
C3073       C  0.91587693  0.65467883  0.74870194    -0.00100
C3074       C  0.88472815  0.65528041  0.75381865    -0.11900
C3075       C  0.85158441  0.62418931  0.75402636     0.02200
C3076       C  0.84909817  0.59131090  0.74908193    -0.00100
C3077       C  0.88021573  0.59085858  0.74368185    -0.11900
C3078       C  0.91326089  0.62191584  0.74334527     0.02100
H3079       H  0.88620307  0.68018297  0.75789082     0.15100
H3080       H  0.87884257  0.56604690  0.73948865     0.15100
C3081       C  0.94355939  0.61901514  0.73688457     0.36700
C3082       C  0.82101437  0.62718350  0.75970224     0.36600
N3083       N  0.96760739  0.61633454  0.73168506    -0.43600
N3084       N  0.79664593  0.62982003  0.76421493    -0.43600
C3085       C  0.59109932  0.84152163  0.74923806    -0.00100
C3086       C  0.62202527  0.84008469  0.74471309    -0.11900
C3087       C  0.65557988  0.87076926  0.74450740     0.02200
C3088       C  0.65886939  0.90418259  0.74891085    -0.00100
C3089       C  0.62789388  0.90557462  0.75340833    -0.11900
C3090       C  0.59440011  0.87491751  0.75369547    -0.07500
H3091       H  0.62008519  0.81479025  0.74118539     0.15100
H3092       H  0.62973951  0.93078348  0.75707034     0.15100
C3093       C  0.56432133  0.87885383  0.75925334     0.36700
C3094       C  0.68580393  0.86676722  0.73950702     0.36600
N3095       N  0.54036652  0.88220979  0.76374321    -0.43600
N3096       N  0.70989277  0.86333204  0.73551640    -0.43600
C3097       C  0.84476707  0.84919948  0.75281502    -0.00100
C3098       C  0.84587099  0.87831757  0.76287924    -0.11900
C3099       C  0.87740286  0.91098494  0.76405099     0.02200
C3100       C  0.90878109  0.91500303  0.75494097    -0.00100
C3101       C  0.90775546  0.88576950  0.74505584    -0.11900
C3102       C  0.87614301  0.85315787  0.74377739     0.02100
H3103       H  0.82202892  0.87546778  0.77006392     0.15100
H3104       H  0.93150452  0.88867966  0.73771425     0.15100
C3105       C  0.87634222  0.82496968  0.73210695     0.36700
C3106       C  0.87681303  0.93950486  0.77514690     0.36600
N3107       N  0.87650930  0.80249274  0.72264249    -0.43600
N3108       N  0.87627006  0.96231169  0.78403520    -0.43600
C3109       C  0.59034276  0.60381711  0.74693573    -0.00100
C3110       C  0.62044592  0.60219027  0.75312941    -0.11900
C3111       C  0.65391679  0.63270218  0.75431020     0.02200
C3112       C  0.65790517  0.66608239  0.74919755    -0.00100
C3113       C  0.62787258  0.66759415  0.74262221    -0.11900
C3114       C  0.59441540  0.63701112  0.74135704     0.02100
H3115       H  0.61779932  0.57695411  0.75752162     0.15100
H3116       H  0.63047480  0.69281183  0.73824153     0.15100
C3117       C  0.56518242  0.64064338  0.73376772     0.36700
C3118       C  0.68318879  0.62863576  0.76133359     0.36600
N3119       N  0.54188542  0.64370612  0.72763710    -0.43600
N3120       N  0.70651681  0.62515695  0.76693896    -0.43600
C3121       C  0.75202055  0.74647982  0.64616200    -0.00100
C3122       C  0.74982554  0.77465590  0.65525112    -0.11900
C3123       C  0.75008163  0.77849930  0.67660165     0.02200
C3124       C  0.75318585  0.75403882  0.68943552    -0.00100
C3125       C  0.75574452  0.72603739  0.68026691    -0.11900
C3126       C  0.75494536  0.72192972  0.65891777     0.02100
H3127       H  0.74746753  0.79362800  0.64560504     0.15100
H3128       H  0.75802905  0.70693099  0.68981559     0.15100
C3129       C  0.75831277  0.69293714  0.65057504     0.36700
C3130       C  0.74778002  0.80821524  0.68473001     0.36600
N3131       N  0.76102317  0.66969155  0.64393017    -0.43600
N3132       N  0.74583014  0.83202184  0.69115746    -0.43600
C3133       C  0.75146053  0.00239217  0.64648501    -0.00100
C3134       C  0.75081985  0.52787296  0.65647374    -0.11900
C3135       C  0.75012204  0.52679018  0.67788819     0.02200
C3136       C  0.75425549  0.00304335  0.68987763    -0.00100
C3137       C  0.75516740  0.97596391  0.67855571    -0.11900
C3138       C  0.75386065  0.97541319  0.65711941     0.02100
H3139       H  0.74664040  0.54746463  0.64867366     0.15100
H3140       H  0.75655533  0.95482187  0.68647997     0.15100
C3141       C  0.75643812  0.94756045  0.64650996     0.36700
C3142       C  0.74450176  0.55273450  0.68857800     0.36600
N3143       N  0.75868228  0.92530167  0.63807457    -0.43600
N3144       N  0.73985007  0.57349704  0.69704755    -0.43600
C3145       C  0.84090113  0.73863264  0.58304730    -0.00100
C3146       C  0.84144867  0.70948771  0.59183369    -0.11900
C3147       C  0.87228469  0.70700163  0.59164726     0.02200
C3148       C  0.90355611  0.73412238  0.58242004    -0.00100
C3149       C  0.90301086  0.76324057  0.57359242    -0.11900
C3150       C  0.87212867  0.76567713  0.57373125     0.02100
H3151       H  0.81775417  0.68867475  0.59917684     0.15100
H3152       H  0.92671722  0.78402869  0.56624534     0.15100
C3153       C  0.87310996  0.79554477  0.56350074     0.36700
C3154       C  0.87117403  0.67692396  0.60169489     0.36600
N3155       N  0.87399174  0.81947313  0.55524747    -0.43600
N3156       N  0.87021604  0.65281177  0.60975982    -0.43600
C3157       C  0.59076560  0.73842521  0.58390830    -0.00100
C3158       C  0.62135113  0.76872008  0.59115842    -0.11900
C3159       C  0.65418867  0.77012974  0.59180289     0.02200
C3160       C  0.65698019  0.74075405  0.58492941    -0.00100
C3161       C  0.62641914  0.71046591  0.57765617    -0.11900
C3162       C  0.59357392  0.70904291  0.57700717     0.02100
H3163       H  0.61955764  0.79131876  0.59669418     0.15100
H3164       H  0.62824406  0.68788977  0.57210507     0.15100
C3165       C  0.56372617  0.67751807  0.56850581     0.36700
C3166       C  0.68408655  0.80161359  0.60028670     0.36600
N3167       N  0.53995183  0.65221397  0.56165003    -0.43600
N3168       N  0.70797031  0.82684789  0.60711994    -0.43600
C3169       C  0.49705877  0.74305112  0.64528345    -0.00100
C3170       C  0.49454908  0.71459669  0.65668873    -0.11900
C3171       C  0.49377035  0.71494987  0.67811700     0.02200
C3172       C  0.49565915  0.74437538  0.68858481    -0.00100
C3173       C  0.99917964  0.76528617  0.67518602    -0.11900
C3174       C  0.99631925  0.76383745  0.65382864     0.02100
H3175       H  0.49336542  0.69199071  0.64885100     0.15100
H3176       H  0.99789336  0.78637970  0.68335615     0.15100
C3177       C  0.99040353  0.78987321  0.64365063     0.36700
C3178       C  0.48960909  0.68411438  0.68885914     0.36600
N3179       N  0.98558226  0.81066775  0.63549449    -0.43600
N3180       N  0.48609856  0.65932042  0.69743312    -0.43600
C3181       C  0.91460297  0.51527673  0.57938630    -0.00100
C3182       C  0.87516991  0.97476786  0.57786004    -0.11900
C3183       C  0.84232788  0.97325856  0.57712248     0.02200
C3184       C  0.83956600  0.00281876  0.58366032    -0.00100
C3185       C  0.87835862  0.54233679  0.58638784    -0.11900
C3186       C  0.91154661  0.54449367  0.58632251     0.02100
H3187       H  0.87688807  0.95195190  0.57265847     0.15100
H3188       H  0.87638737  0.56468002  0.59222287     0.15100
C3189       C  0.94146587  0.57656856  0.59425812     0.36700
C3190       C  0.81237387  0.94127931  0.56912018     0.36600
N3191       N  0.96531888  0.60235885  0.60060363    -0.43600
N3192       N  0.78847968  0.91559119  0.56270522    -0.43600
C3193       C  0.59713822  0.51135326  0.58867376    -0.00100
C3194       C  0.59076400  0.97593111  0.58249382    -0.11900
C3195       C  0.62149629  0.97327008  0.58288930     0.02200
C3196       C  0.65512028  0.00422673  0.58533612    -0.00100
C3197       C  0.66133396  0.53928658  0.59273909    -0.11900
C3198       C  0.63034866  0.54154077  0.59339285     0.02100
H3199       H  0.56534147  0.95181799  0.58058972     0.15100
H3200       H  0.68651894  0.56291163  0.59611519     0.15100
C3201       C  0.63384023  0.57524008  0.59918112     0.36700
C3202       C  0.61723239  0.93833799  0.58030466     0.36600
N3203       N  0.63683800  0.60229248  0.60387624    -0.43600
N3204       N  0.61357365  0.91027543  0.57816424    -0.43600
C3205       C  0.49475682  0.51301275  0.64434995    -0.00100
C3206       C  0.48985751  0.97670362  0.65487624    -0.11900
C3207       C  0.48765465  0.97494628  0.67634623     0.02200
C3208       C  0.49009364  0.50998023  0.68760768    -0.00100
C3209       C  0.99669300  0.54028386  0.67773301    -0.11900
C3210       C  0.00098670  0.54286680  0.65638821     0.02100
H3211       H  0.48928948  0.95493149  0.64639711     0.15100
H3212       H  0.00053083  0.56320553  0.68647823     0.15100
C3213       C  0.00980118  0.57625926  0.64693663     0.36700
C3214       C  0.48319716  0.94333108  0.68625291     0.36600
N3215       N  0.01704321  0.60316076  0.63949535    -0.43600
N3216       N  0.47948187  0.91794430  0.69418803    -0.43600
C3217       C  0.75118961  0.75919931  0.85642882    -0.00100
C3218       C  0.72034144  0.75316073  0.84606133    -0.11900
C3219       C  0.71900887  0.75255167  0.82454252     0.02200
C3220       C  0.74913565  0.75849162  0.81306621    -0.00100
C3221       C  0.78005978  0.76501697  0.82347665    -0.11900
C3222       C  0.78141981  0.76566578  0.84490907     0.02100
H3223       H  0.69692220  0.74792582  0.85478724     0.15100
H3224       H  0.80350817  0.77016292  0.81480308     0.15100
C3225       C  0.81468280  0.77458686  0.85468422     0.36700
C3226       C  0.68587526  0.74375101  0.81466808     0.36600
N3227       N  0.84135415  0.78194419  0.86255141    -0.43600
N3228       N  0.65925282  0.73644019  0.80675156    -0.43600
C3229       C  0.75517023  0.98843732  0.85598863    -0.00100
C3230       C  0.75074476  0.51488920  0.84525057    -0.11900
C3231       C  0.74868860  0.51559700  0.82395177     0.02200
C3232       C  0.75095725  0.98832058  0.81284627    -0.00100
C3233       C  0.78116754  0.99129345  0.82251971    -0.11900
C3234       C  0.78362660  0.99162857  0.84390107     0.02100
H3235       H  0.74041571  0.52880490  0.85420905     0.15100
H3236       H  0.80351866  0.99466953  0.81334378     0.15100
C3237       C  0.81652073  0.99765014  0.85291971     0.36700
C3238       C  0.73303536  0.53527147  0.81546443     0.36600
N3239       N  0.84300322  0.00270680  0.86007871    -0.43600
N3240       N  0.72045080  0.55108864  0.80883075    -0.43600
C3241       C  0.91979542  0.65912394  0.91503692    -0.00100
C3242       C  0.92090534  0.62899288  0.92171971    -0.11900
C3243       C  0.89016514  0.59563722  0.92265911     0.02200
C3244       C  0.85714582  0.59171196  0.91659494    -0.00100
C3245       C  0.85602664  0.62183195  0.90992596    -0.11900
C3246       C  0.88674210  0.65523170  0.90910292     0.02100
H3247       H  0.94591371  0.63149388  0.92659496     0.15100
H3248       H  0.83100105  0.61931893  0.90508130     0.15100
C3249       C  0.88329451  0.68459242  0.90166229     0.36700
C3250       C  0.89349243  0.56644993  0.93056511     0.36600
N3251       N  0.88029703  0.70798612  0.89571101    -0.43600
N3252       N  0.89637839  0.54324341  0.93696820    -0.43600
C3253       C  0.59802568  0.84206828  0.91998973    -0.00100
C3254       C  0.62872342  0.83988671  0.91593115    -0.11900
C3255       C  0.66264777  0.87007057  0.91623459     0.02200
C3256       C  0.66652473  0.90371444  0.92059897    -0.00100
C3257       C  0.63591363  0.90571885  0.92518621    -0.11900
C3258       C  0.60206275  0.87556078  0.92501343     0.02100
H3259       H  0.62631888  0.81446701  0.91218339     0.15100
H3260       H  0.63829437  0.93112674  0.92895097     0.15100
C3261       C  0.57232993  0.88015799  0.93040514     0.36700
C3262       C  0.69257475  0.86542040  0.91149843     0.36600
N3263       N  0.54866623  0.88406398  0.93477894    -0.43600
N3264       N  0.71639012  0.86140761  0.90773854    -0.43600
C3265       C  0.50177051  0.75345580  0.85532569    -0.00100
C3266       C  0.49190101  0.77569202  0.84516232    -0.11900
C3267       C  0.48984812  0.77590837  0.82372563     0.02200
C3268       C  0.49788272  0.75347510  0.81188686    -0.00100
C3269       C  0.02584606  0.73365902  0.82017816    -0.11900
C3270       C  0.02722341  0.73366454  0.84161896     0.02100
H3271       H  0.48592435  0.79326681  0.85396867     0.15100
H3272       H  0.03553993  0.71872287  0.81168033     0.15100
C3273       C  0.04200286  0.71389466  0.85102141     0.36700
C3274       C  0.47998374  0.79987918  0.81450995     0.36600
N3275       N  0.05398712  0.69809432  0.85843707    -0.43600
N3276       N  0.47201105  0.81909644  0.80720754    -0.43600
C3277       C  0.84665442  0.84893674  0.91713549    -0.00100
C3278       C  0.84697172  0.87929573  0.90967511    -0.11900
C3279       C  0.87827282  0.91217225  0.90926877     0.02200
C3280       C  0.91023133  0.91533838  0.91678607    -0.00100
C3281       C  0.91000947  0.88483086  0.92398091    -0.11900
C3282       C  0.87874487  0.85185695  0.92421699     0.02100
H3283       H  0.82267884  0.87728919  0.90381707     0.15100
H3284       H  0.93427186  0.88679199  0.92984494     0.15100
C3285       C  0.88038297  0.82197458  0.93252533     0.36700
C3286       C  0.87674562  0.94157212  0.90020700     0.36600
N3287       N  0.88180167  0.79809146  0.93917724    -0.43600
N3288       N  0.87509158  0.96474791  0.89271280    -0.43600
C3289       C  0.59378378  0.60291455  0.91788503    -0.00100
C3290       C  0.62303654  0.60357698  0.92742149    -0.11900
C3291       C  0.65604137  0.63475353  0.92819944     0.02200
C3292       C  0.66021252  0.66607051  0.91917255    -0.00100
C3293       C  0.63089777  0.66545033  0.90974332    -0.11900
C3294       C  0.59793353  0.63424905  0.90889712     0.02100
H3295       H  0.61999924  0.57971924  0.93454913     0.15100
H3296       H  0.63395485  0.68925571  0.90253488     0.15100
C3297       C  0.56948151  0.63481567  0.89780478     0.36700
C3298       C  0.68466229  0.63404755  0.93900190     0.36600
N3299       N  0.54673142  0.63521159  0.88884046    -0.43600
N3300       N  0.70753556  0.63345021  0.94770385    -0.43600
C3301       C  0.48760135  0.00963183  0.85452975    -0.00100
C3302       C  0.00574950  0.98514602  0.84710568    -0.11900
C3303       C  0.00539809  0.98404247  0.82567627     0.02200
C3304       C  0.48939319  0.01081885  0.81116549    -0.00100
C3305       C  0.48258595  0.52830276  0.82186880    -0.11900
C3306       C  0.48217455  0.52849876  0.84331358     0.02100
H3307       H  0.00580895  0.96372071  0.85552396     0.15100
H3308       H  0.46639423  0.53676775  0.81371170     0.15100
C3309       C  0.46036906  0.54062397  0.85322891     0.36700
C3310       C  0.00450017  0.95381115  0.81580143     0.36600
N3311       N  0.44295076  0.55050441  0.86106319    -0.43600
N3312       N  0.00375962  0.92956757  0.80791690    -0.43600
C3313       C  0.75965722  0.75801628  0.97983332    -0.00100
C3314       C  0.78962257  0.75910038  0.98874964    -0.11900
C3315       C  0.79394441  0.76032665  0.01008962     0.02200
C3316       C  0.76769797  0.76012951  0.02303679    -0.00100
C3317       C  0.73754993  0.75861000  0.01409405    -0.11900
C3318       C  0.73337188  0.75768230  0.99278478     0.02100
H3319       H  0.80998098  0.75929051  0.97899214     0.15100
H3320       H  0.71708142  0.75828754  0.02380841     0.15100
C3321       C  0.70120211  0.75508728  0.98475066     0.36700
C3322       C  0.82495982  0.76056126  0.01819012     0.36600
N3323       N  0.67536543  0.75295013  0.97837327    -0.43600
N3324       N  0.84981164  0.76071866  0.02466499    -0.43600
C3325       C  0.77138243  0.91898005  0.08454188    -0.00100
C3326       C  0.74011925  0.88699634  0.08882085    -0.11900
C3327       C  0.73978521  0.85478370  0.08952141     0.02200
C3328       C  0.77135964  0.85378085  0.08551699    -0.00100
C3329       C  0.80283753  0.88586792  0.08153444    -0.11900
C3330       C  0.80324044  0.91825274  0.08111568     0.02100
H3331       H  0.71559320  0.88704471  0.09191789     0.15100
H3332       H  0.82736259  0.88576110  0.07856091     0.15100
C3333       C  0.83675827  0.94993490  0.07691783     0.36700
C3334       C  0.70654962  0.82359589  0.09486135     0.36600
N3335       N  0.86375180  0.97520735  0.07365862    -0.43600
N3336       N  0.67985023  0.79876542  0.09920130    -0.43600
C3337       C  0.76854783  0.60212527  0.08316744    -0.00100
C3338       C  0.79985369  0.63246070  0.08977022    -0.11900
C3339       C  0.80244944  0.66585545  0.09045404     0.02200
C3340       C  0.77324781  0.66948804  0.08429921    -0.00100
C3341       C  0.74202625  0.63918884  0.07767273    -0.11900
C3342       C  0.73938776  0.60585659  0.07701527     0.02100
H3343       H  0.82236730  0.63007886  0.09476062     0.15100
H3344       H  0.71946734  0.64152056  0.07270939     0.15100
C3345       C  0.70661169  0.57639433  0.06944766     0.36700
C3346       C  0.83499466  0.69541147  0.09818719     0.36600
N3347       N  0.68026027  0.55293373  0.06337625    -0.43600
N3348       N  0.86118038  0.71890157  0.10441155    -0.43600
C3349       C  0.76442856  0.00437273  0.97900402    -0.00100
C3350       C  0.78943854  0.99901599  0.98970602    -0.11900
C3351       C  0.79156503  0.00121971  0.01113336     0.02200
C3352       C  0.76807061  0.00849945  0.02227899    -0.00100
C3353       C  0.73876537  0.50495681  0.01099803    -0.11900
C3354       C  0.73717571  0.50269326  0.98961233     0.02100
H3355       H  0.80738624  0.99296869  0.98134695     0.15100
H3356       H  0.71808819  0.50684244  0.01929584     0.15100
C3357       C  0.70714543  0.50190260  0.97961699     0.36700
C3358       C  0.81687145  0.99420901  0.02131961     0.36600
N3359       N  0.68306654  0.50128173  0.97165238    -0.43600
N3360       N  0.83711980  0.98852580  0.02946496    -0.43600
C3361       C  0.49896987  0.74644809  0.97872886    -0.00100
C3362       C  0.97878860  0.75181978  0.98645315    -0.11900
C3363       C  0.97486358  0.74963851  0.00779778     0.02200
C3364       C  0.49347898  0.74275962  0.02194962    -0.00100
C3365       C  0.52091068  0.74050560  0.01193926    -0.11900
C3366       C  0.52370191  0.74195373  0.99055067     0.02100
H3367       H  0.95875696  0.75308703  0.97719487     0.15100
H3368       H  0.54023851  0.73747120  0.02088231     0.15100
C3369       C  0.55278784  0.73968318  0.98134489     0.36700
C3370       C  0.94507369  0.75107764  0.01662347     0.36600
N3371       N  0.57605075  0.73771629  0.97402902    -0.43600
N3372       N  0.92129694  0.75237173  0.02371695    -0.43600
C3373       C  0.48505947  0.89797927  0.08020176    -0.00100
C3374       C  0.01974812  0.89627918  0.07730087    -0.11900
C3375       C  0.02149449  0.86507074  0.07634764     0.02200
C3376       C  0.48976501  0.83524671  0.08086333    -0.00100
C3377       C  0.45679684  0.83356070  0.07835941    -0.11900
C3378       C  0.45417044  0.86431125  0.07778264     0.02100
H3379       H  0.04213759  0.92075791  0.07173619     0.15100
H3380       H  0.43273380  0.80802420  0.07671017     0.15100
C3381       C  0.41945100  0.86009404  0.07421537     0.36700
C3382       C  0.05293453  0.86699374  0.06750586     0.36600
N3383       N  0.39156873  0.85645666  0.07121579    -0.43600
N3384       N  0.07814158  0.86863068  0.06037997    -0.43600
C3385       C  0.49123090  0.58610772  0.08581966    -0.00100
C3386       C  0.52060410  0.61632801  0.07753486    -0.11900
C3387       C  0.52179312  0.64901944  0.07698513     0.02200
C3388       C  0.49309093  0.65201328  0.08495096    -0.00100
C3389       C  0.95778577  0.61589087  0.08558470    -0.11900
C3390       C  0.95471236  0.58235866  0.08652172     0.02100
H3391       H  0.54252357  0.61429459  0.07101578     0.15100
H3392       H  0.93438252  0.61807402  0.08860015     0.15100
C3393       C  0.92047850  0.55274194  0.09205367     0.36700
C3394       C  0.55216818  0.67846080  0.06735842     0.36600
N3395       N  0.89296701  0.52931254  0.09665536    -0.43600
N3396       N  0.57653659  0.70195258  0.05960854    -0.43600
C3397       C  0.48366487  0.99258386  0.02062652    -0.00100
C3398       C  0.51664905  0.00777428  0.01036410    -0.11900
C3399       C  0.51871239  0.01023453  0.98898350     0.02200
C3400       C  0.48744934  0.99782970  0.97739789    -0.00100
C3401       C  0.95505121  0.48659786  0.98762530    -0.11900
C3402       C  0.95204564  0.48168894  0.00887828     0.02100
H3403       H  0.54111833  0.01799701  0.01901015     0.15100
H3404       H  0.93193942  0.48188341  0.97880459     0.15100
C3405       C  0.91777125  0.47051718  0.01803544     0.36700
C3406       C  0.55329324  0.02691047  0.97933367     0.36600
N3407       N  0.89012009  0.46127748  0.02520762    -0.43600
N3408       N  0.58097688  0.04034043  0.97158060    -0.43600
C3409       C  0.74218211  0.73282169  0.47949840    -0.00100
C3410       C  0.73740864  0.75822521  0.49014241    -0.11900
C3411       C  0.73814394  0.75960902  0.51157284     0.02200
C3412       C  0.74421768  0.73545950  0.52282107    -0.00100
C3413       C  0.74871032  0.70981794  0.51220830    -0.11900
C3414       C  0.74795802  0.70844133  0.49071255     0.02100
H3415       H  0.73253828  0.77678525  0.48166925     0.15100
H3416       H  0.75372805  0.69139657  0.52071344     0.15100
C3417       C  0.75512614  0.68311258  0.48056082     0.36700
C3418       C  0.73101101  0.78506183  0.52162269     0.36600
N3419       N  0.76107785  0.66297682  0.47240167    -0.43600
N3420       N  0.72510228  0.80530263  0.52968799    -0.43600
C3421       C  0.75990872  0.51909172  0.47829591    -0.00100
C3422       C  0.72760109  0.97494356  0.48942292    -0.11900
C3423       C  0.72652289  0.97285203  0.51083034     0.02200
C3424       C  0.74574014  0.00402017  0.52279706    -0.00100
C3425       C  0.76881015  0.54693310  0.51197494    -0.11900
C3426       C  0.77161685  0.54990156  0.49054001     0.02100
H3427       H  0.71259126  0.95063083  0.48068133     0.15100
H3428       H  0.77750107  0.57078583  0.52107519     0.15100
C3429       C  0.78708636  0.58497309  0.48178537     0.36700
C3430       C  0.70520954  0.93811652  0.51979824     0.36600
N3431       N  0.79985020  0.61319068  0.47487875    -0.43600
N3432       N  0.68811341  0.91018013  0.52684593    -0.43600
C3433       C  0.49495425  0.73577094  0.52213430    -0.00100
C3434       C  0.98144464  0.69691162  0.50942265    -0.11900
C3435       C  0.97898921  0.69447635  0.48801008     0.02200
C3436       C  0.49051453  0.73169601  0.47884577    -0.00100
C3437       C  0.49650577  0.76255344  0.48921847    -0.11900
C3438       C  0.49871670  0.76489420  0.51055022     0.02100
H3439       H  0.97738628  0.67397251  0.51811651     0.15100
H3440       H  0.49934273  0.78513039  0.48062440     0.15100
C3441       C  0.50400107  0.79733906  0.51993943     0.36700
C3442       C  0.97139882  0.66129348  0.47859784     0.36600
N3443       N  0.50828170  0.82339161  0.52737836    -0.43600
N3444       N  0.96527456  0.63465408  0.47111486    -0.43600
C3445       C  0.89510864  0.72794958  0.41400905    -0.00100
C3446       C  0.89584334  0.75835241  0.42197574    -0.11900
C3447       C  0.86502878  0.76075018  0.42317163     0.02200
C3448       C  0.83239836  0.73229225  0.41610975    -0.00100
C3449       C  0.83170939  0.70201433  0.40792784    -0.11900
C3450       C  0.86256850  0.69961075  0.40677599     0.02100
H3451       H  0.92054248  0.78020763  0.42775859     0.15100
H3452       H  0.80698010  0.68014933  0.40218599     0.15100
C3453       C  0.85997779  0.66812370  0.39763189     0.36700
C3454       C  0.86777466  0.79223263  0.43245536     0.36600
N3455       N  0.85779952  0.64283707  0.39032122    -0.43600
N3456       N  0.87012286  0.81748842  0.43993572    -0.43600
C3457       C  0.64891406  0.73527555  0.41887080    -0.00100
C3458       C  0.61875492  0.70586083  0.41055133    -0.11900
C3459       C  0.58601413  0.70458191  0.40980791     0.02200
C3460       C  0.58290525  0.73338177  0.41747339    -0.00100
C3461       C  0.61301235  0.76270065  0.42599255    -0.11900
C3462       C  0.64571885  0.76377286  0.42693576     0.02100
H3463       H  0.62081002  0.68382347  0.40427409     0.15100
H3464       H  0.61088017  0.78464707  0.43233733     0.15100
C3465       C  0.67492659  0.79369468  0.43707951     0.36700
C3466       C  0.55651608  0.67366358  0.40057739     0.36600
N3467       N  0.69821253  0.81758983  0.44532377    -0.43600
N3468       N  0.53294509  0.64879137  0.39322580    -0.43600
C3469       C  0.51618439  0.51929793  0.47760946    -0.00100
C3470       C  0.99630111  0.97529387  0.49161597    -0.11900
C3471       C  0.99640871  0.97395976  0.51302879     0.02200
C3472       C  0.51542770  0.51640952  0.52121728    -0.00100
C3473       C  0.53064244  0.54914867  0.51089469    -0.11900
C3474       C  0.53135223  0.55093055  0.48940809     0.02100
H3475       H  0.99585015  0.95379163  0.48288721     0.15100
H3476       H  0.54171838  0.57366631  0.51961829     0.15100
C3477       C  0.54785311  0.58568225  0.48014178     0.36700
C3478       C  0.99631445  0.94396672  0.52251851     0.36600
N3479       N  0.56125234  0.61362522  0.47282417    -0.43600
N3480       N  0.99620277  0.91988751  0.53007520    -0.43600
C3481       C  0.91609707  0.51263852  0.41864694    -0.00100
C3482       C  0.91646356  0.54391825  0.42457136    -0.11900
C3483       C  0.88537925  0.54595855  0.42469439     0.02200
C3484       C  0.85283261  0.51617553  0.41861388    -0.00100
C3485       C  0.84203457  0.97585796  0.40973134    -0.11900
C3486       C  0.87349951  0.97451620  0.40955547     0.02100
H3487       H  0.94120459  0.56701378  0.42925094     0.15100
H3488       H  0.81889623  0.95542255  0.40175286     0.15100
C3489       C  0.87415214  0.94634271  0.39811723     0.36700
C3490       C  0.88788787  0.57874625  0.43161265     0.36600
N3491       N  0.87465108  0.92383475  0.38886924    -0.43600
N3492       N  0.89005542  0.60505225  0.43719098    -0.43600
C3493       C  0.60494909  0.51988946  0.41395058    -0.00100
C3494       C  0.60588994  0.49001397  0.40659013    -0.11900
C3495       C  0.63748928  0.48901321  0.40630867     0.02200
C3496       C  0.66912024  0.51827536  0.41383084    -0.00100
C3497       C  0.65817668  0.03859495  0.41055724    -0.11900
C3498       C  0.62748430  0.04137413  0.41033513     0.02100
H3499       H  0.58180813  0.46730554  0.40082528     0.15100
H3500       H  0.68336477  0.06172680  0.40656719     0.15100
C3501       C  0.63133348  0.07513707  0.40451667     0.36700
C3502       C  0.63663337  0.45801508  0.39757653     0.36600
N3503       N  0.63471130  0.10230452  0.39986207    -0.43600
N3504       N  0.63587294  0.43319851  0.39050865    -0.43600
C3505       C  0.77593550  0.76392988  0.14655096    -0.00100
C3506       C  0.74660771  0.76252075  0.15657579    -0.11900
C3507       C  0.74350748  0.76042578  0.17789411     0.02200
C3508       C  0.76998530  0.75918361  0.18980155    -0.00100
C3509       C  0.80013664  0.76211068  0.17990516    -0.11900
C3510       C  0.80336558  0.76450679  0.15847083     0.02100
H3511       H  0.72583703  0.76310344  0.14768564     0.15100
H3512       H  0.82082025  0.76154557  0.18888525     0.15100
C3513       C  0.83430987  0.76597849  0.14922123     0.36700
C3514       C  0.71328740  0.76064632  0.18706262     0.36600
N3515       N  0.85922593  0.76723307  0.14192086    -0.43600
N3516       N  0.68913806  0.76093988  0.19439039    -0.43600
C3517       C  0.74888175  0.73845644  0.31269816    -0.00100
C3518       C  0.77795401  0.76248359  0.32467875    -0.11900
C3519       C  0.77620406  0.76185368  0.34609539     0.02200
C3520       C  0.74473231  0.73682456  0.35613462    -0.00100
C3521       C  0.71589888  0.71217108  0.34431471    -0.11900
C3522       C  0.71758986  0.71278199  0.32281255     0.02100
H3523       H  0.80231410  0.78210188  0.31731509     0.15100
H3524       H  0.69180377  0.69253371  0.35190576     0.15100
C3525       C  0.68706044  0.68615026  0.31172994     0.36700
C3526       C  0.80775368  0.78623322  0.35736104     0.36600
N3527       N  0.66250763  0.66469836  0.30295444    -0.43600
N3528       N  0.83307848  0.80563589  0.36637803    -0.43600
C3529       C  0.75334894  0.90209353  0.24956724    -0.00100
C3530       C  0.78366403  0.90264750  0.25750424    -0.11900
C3531       C  0.78587546  0.87173124  0.25874915     0.02200
C3532       C  0.75715885  0.83899309  0.25194805    -0.00100
C3533       C  0.72695962  0.83850066  0.24379889    -0.11900
C3534       C  0.72487677  0.86951904  0.24242753     0.02100
H3535       H  0.80573336  0.92737024  0.26310845     0.15100
H3536       H  0.70498776  0.81382727  0.23807075     0.15100
C3537       C  0.69375822  0.86709868  0.23289732     0.36700
C3538       C  0.81775835  0.87465715  0.26748322     0.36600
N3539       N  0.66881915  0.86498314  0.22516471    -0.43600
N3540       N  0.84339722  0.87716340  0.27444066    -0.43600
C3541       C  0.76174414  0.65652150  0.24757395    -0.00100
C3542       C  0.78628371  0.65270430  0.25966064    -0.11900
C3543       C  0.78638874  0.62063725  0.26002198     0.02200
C3544       C  0.76176680  0.59175661  0.24799243    -0.00100
C3545       C  0.73781635  0.59580106  0.23551233    -0.11900
C3546       C  0.73781604  0.62793510  0.23505014     0.02100
H3547       H  0.80465650  0.67444185  0.26938769     0.15100
H3548       H  0.71928311  0.57388555  0.22594148     0.15100
C3549       C  0.71397754  0.63124881  0.22101809     0.36700
C3550       C  0.81040669  0.61728933  0.27385465     0.36600
N3551       N  0.69505755  0.63399360  0.20967716    -0.43600
N3552       N  0.82931272  0.61415139  0.28499204    -0.43600
C3553       C  0.76042643  0.00451380  0.14542366    -0.00100
C3554       C  0.73029894  0.48389185  0.15477035    -0.11900
C3555       C  0.72751621  0.47975759  0.17606990     0.02200
C3556       C  0.75464393  0.99913984  0.18867941    -0.00100
C3557       C  0.78474767  0.00240128  0.17860647    -0.11900
C3558       C  0.78776865  0.00484229  0.15725727     0.02100
H3559       H  0.70631879  0.47004461  0.14563431     0.15100
H3560       H  0.80584850  0.00234807  0.18742966     0.15100
C3561       C  0.81839715  0.00574240  0.14795640     0.36700
C3562       C  0.69251849  0.45725969  0.18456916     0.36600
N3563       N  0.84286130  0.00621111  0.14055869    -0.43600
N3564       N  0.66436966  0.43925567  0.19124233    -0.43600
C3565       C  0.76058104  0.51224758  0.35479797    -0.00100
C3566       C  0.72044242  0.97402280  0.34540927    -0.11900
C3567       C  0.71966265  0.97062261  0.32402777     0.02200
C3568       C  0.74996598  0.99369997  0.31227253    -0.00100
C3569       C  0.78711097  0.53216279  0.32110865    -0.11900
C3570       C  0.78902875  0.53654194  0.34241461     0.02100
H3571       H  0.69704466  0.95624034  0.35423790     0.15100
H3572       H  0.80919346  0.55100065  0.31178375     0.15100
C3573       C  0.82132910  0.56500593  0.35108610     0.36700
C3574       C  0.68752541  0.94277143  0.31479882     0.36600
N3575       N  0.84749336  0.58772195  0.35784207    -0.43600
N3576       N  0.66168594  0.92043226  0.30749317    -0.43600
C3577       C  0.49183280  0.74802945  0.18892789    -0.00100
C3578       C  0.95480166  0.71538444  0.17596223    -0.11900
C3579       C  0.95464705  0.71357347  0.15449018     0.02200
C3580       C  0.48987872  0.74671771  0.14537047    -0.00100
C3581       C  0.52192606  0.75793700  0.15595290    -0.11900
C3582       C  0.52328374  0.75882632  0.17738735     0.02100
H3583       H  0.93088464  0.69730202  0.18429530     0.15100
H3584       H  0.54624160  0.76577868  0.14746194     0.15100
C3585       C  0.55743389  0.77053532  0.18684809     0.36700
C3586       C  0.92248969  0.68714011  0.14454489     0.36600
N3587       N  0.58489409  0.78005884  0.19432415    -0.43600
N3588       N  0.89668398  0.66588174  0.13664579    -0.43600
C3589       C  0.49106581  0.73662878  0.35570403    -0.00100
C3590       C  0.95895096  0.70307437  0.34248831    -0.11900
C3591       C  0.95676080  0.70452691  0.32116774     0.02200
C3592       C  0.48794443  0.73953973  0.31249537    -0.00100
C3593       C  0.51882507  0.76354290  0.32323323    -0.11900
C3594       C  0.52062483  0.76231380  0.34458112     0.02100
H3595       H  0.93696515  0.68199064  0.35086900     0.15100
H3596       H  0.54180463  0.78348626  0.31494466     0.15100
C3597       C  0.55363802  0.78681715  0.35457393     0.36700
C3598       C  0.92623068  0.67602881  0.31110843     0.36600
N3599       N  0.58012855  0.80633598  0.36256684    -0.43600
N3600       N  0.90188642  0.65290143  0.30311248    -0.43600
C3601       C  0.49178376  0.90333370  0.25113774    -0.00100
C3602       C  0.95623390  0.86673547  0.24537463    -0.11900
C3603       C  0.95456940  0.83382872  0.24398864     0.02200
C3604       C  0.48936989  0.83719259  0.25125094    -0.00100
C3605       C  0.51806687  0.86726143  0.26020103    -0.11900
C3606       C  0.51953862  0.90012705  0.26022331     0.02100
H3607       H  0.93395760  0.86909287  0.23988357     0.15100
H3608       H  0.53932909  0.86503891  0.26742681     0.15100
C3609       C  0.54927228  0.92967723  0.27026248     0.36700
C3610       C  0.92312103  0.80463228  0.23497648     0.36600
N3611       N  0.57312426  0.95330754  0.27831515    -0.43600
N3612       N  0.89786224  0.78136934  0.22773106    -0.43600
C3613       C  0.49296687  0.58904440  0.24804093    -0.00100
C3614       C  0.95502522  0.58119885  0.25054396    -0.11900
C3615       C  0.95292510  0.61219457  0.25066448     0.02200
C3616       C  0.48973005  0.65246492  0.24929874    -0.00100
C3617       C  0.52036526  0.65263704  0.24219186    -0.11900
C3618       C  0.52228757  0.62150999  0.24144855     0.02100
H3619       H  0.93060132  0.55583857  0.25239706     0.15100
H3620       H  0.54308370  0.67737355  0.23692397     0.15100
C3621       C  0.55440874  0.62386941  0.23340422     0.36700
C3622       C  0.91830621  0.60848983  0.25391879     0.36600
N3623       N  0.58023311  0.62597648  0.22693414    -0.43600
N3624       N  0.89049296  0.60526067  0.25662327    -0.43600
C3625       C  0.98867290  0.98696529  0.14799463    -0.00100
C3626       C  0.95103548  0.46959567  0.15521193    -0.11900
C3627       C  0.95013292  0.46933322  0.17672355     0.02200
C3628       C  0.98704073  0.98843396  0.19135412    -0.00100
C3629       C  0.51338723  0.98769679  0.17650843    -0.11900
C3630       C  0.51297409  0.98621006  0.15506818     0.02100
H3631       H  0.92615643  0.45858697  0.14688382     0.15100
H3632       H  0.53420130  0.98617884  0.18479187     0.15100
C3633       C  0.53985768  0.98147570  0.14483021     0.36700
C3634       C  0.91574119  0.45424067  0.18650453     0.36600
N3635       N  0.56130185  0.97750905  0.13664769    -0.43600
N3636       N  0.88807689  0.44208051  0.19421842    -0.43600
C3637       C  0.50581481  0.50958776  0.35407908    -0.00100
C3638       C  0.97008084  0.48170432  0.34608765    -0.11900
C3639       C  0.96595333  0.47676309  0.32485513     0.02200
C3640       C  0.49999509  0.50250945  0.31088357    -0.00100
C3641       C  0.52808804  0.02494548  0.32038545    -0.11900
C3642       C  0.53077858  0.02851358  0.34176717     0.02100
H3643       H  0.94836515  0.46420934  0.35609654     0.15100
H3644       H  0.55159025  0.04080733  0.31116227     0.15100
C3645       C  0.56517920  0.05186020  0.35066712     0.36700
C3646       C  0.93271273  0.44791324  0.31734554     0.36600
N3647       N  0.59289581  0.07043412  0.35767547    -0.43600
N3648       N  0.90599530  0.42479210  0.31142497    -0.43600
loop_ 
_geom_bond_atom_site_label_1 
_geom_bond_atom_site_label_2 
_geom_bond_distance 
_geom_bond_site_symmetry_2 
_ccdc_geom_bond_type 
O1           Ni9   1.909       .  S
O1         C1835   1.281       .  A
O2         Ni921   1.910   1_545  S
O2         C1836   1.281       .  A
O3           Ni9   1.916       .  S
O3           C13   1.281       .  A
O4           Ni9   1.915       .  S
O4         C2750   1.281       .  A
O5          Ni10   1.916       .  S
O5           C14   1.282   1_445  A
O6          Ni10   1.915       .  S
O6         C2749   1.282   1_445  A
O7          Ni10   1.910       .  S
O7           C12   1.279   1_455  A
O8         Ni922   1.910       .  S
O8           C11   1.279   1_455  A
Ni9         O914   1.909       .  S
Ni9       Ni2746   2.385       .  S
Ni10        O920   1.910   1_545  S
Ni10      Ni2745   2.385   1_445  S
C11        O1825   1.281       .  A
C11         C865   1.480       .  S
C12        O1826   1.282       .  A
C12         C877   1.482       .  S
C13        O2742   1.282       .  A
C13         C892   1.484       .  S
C14        O2740   1.280       .  A
C14         C904   1.489       .  S
O15         Ni23   1.916       .  S
O15          C25   1.283   1_455  A
O16         Ni23   1.917       .  S
O16          C26   1.282   1_455  A
O17         Ni23   1.911       .  S
O17          C27   1.281   1_455  A
O18         Ni23   1.912       .  S
O18          C28   1.280   1_455  A
O19         Ni24   1.917       .  S
O19        C1852   1.282       .  A
O20         Ni24   1.919       .  S
O20        C1851   1.281       .  A
O21         Ni24   1.912       .  S
O21        C1850   1.280       .  A
O22         Ni24   1.911       .  S
O22        C1849   1.280       .  A
Ni23      Ni1848   2.385   1_455  S
Ni24      Ni1847   2.384       .  S
C25        O1846   1.278       .  A
C25         C880   1.483       .  S
C26        O1845   1.279       .  A
C26         C868   1.482       .  S
C27        O1844   1.281       .  A
C27         C856   1.484       .  S
C28        O1843   1.282       .  A
C28         C841   1.481       .  S
O29        Ni949   1.906   1_545  S
O29          C39   1.281       .  A
O30         Ni37   1.913       .  S
O30          C40   1.281       .  A
O31         Ni37   1.906       .  S
O31          C41   1.279       .  A
O32         Ni37   1.908       .  S
O32          C42   1.279       .  A
O33         Ni38   1.919       .  S
O33         C954   1.282       .  A
O34         Ni38   1.918       .  S
O34         C953   1.282       .  A
O35        Ni950   1.914       .  S
O35          C40   1.281       .  A
O36         Ni38   1.915       .  S
O36          C39   1.280       .  A
Ni37        O941   1.912       .  S
Ni37       Ni950   2.383       .  S
Ni38        O947   1.917   1_545  S
Ni38       Ni949   2.385   1_545  S
C39         C808   1.483       .  S
C40         C793   1.481       .  S
C41         O946   1.282       .  A
C41         C832   1.488       .  S
C42         O945   1.282       .  A
C42         C820   1.483       .  S
O43         Ni51   1.915       .  S
O43          C53   1.281       .  A
O44         Ni51   1.915       .  S
O44          C54   1.281       .  A
O45         Ni51   1.927       .  S
O45          C55   1.284       .  A
O46         Ni51   1.924       .  S
O46          C56   1.282       .  A
O47         Ni52   1.907       .  S
O47          C56   1.279       .  A
O48         Ni52   1.909       .  S
O48          C55   1.279       .  A
O49         Ni52   1.911       .  S
O49          C54   1.281       .  A
O50         Ni52   1.906       .  S
O50          C53   1.279       .  A
Ni51        Ni52   2.386       .  S
C53         C805   1.483       .  S
C54         C796   1.480       .  S
C55         C781   1.490       .  S
C56         C772   1.478       .  S
O57         Ni65   1.912       .  S
O57         C979   1.280       .  A
O58       Ni1889   1.913   1_455  S
O58         C980   1.282       .  A
O59         Ni65   1.909       .  S
O59        C2805   1.281       .  A
O60         Ni65   1.909       .  S
O60        C2806   1.280       .  A
O61         Ni66   1.918       .  S
O61          C70   1.282   1_455  A
O62         Ni66   1.916       .  S
O62          C69   1.281   1_455  A
O63         Ni66   1.905       .  S
O63          C68   1.279       .  A
O64       Ni1890   1.916       .  S
O64          C67   1.282       .  A
Ni65       O1882   1.910       .  S
Ni65      Ni2802   2.385       .  S
Ni66       O1888   1.906   1_455  S
Ni66      Ni2801   2.389   1_445  S
C67         O969   1.280   1_545  A
C67         C745   1.484       .  S
C68         O970   1.282   1_545  A
C68         C757   1.480       .  S
C69        O2795   1.280   1_545  A
C69         C733   1.481       .  S
C70        O2796   1.279   1_545  A
C70         C901   1.472   1_545  S
O71       Ni1903   1.907       .  S
O71          C81   1.281       .  A
O72         Ni79   1.910       .  S
O72          C82   1.280       .  A
O73         Ni79   1.910       .  S
O73          C83   1.280   1_455  A
O74         Ni79   1.910       .  S
O74          C84   1.281   1_455  A
O75         Ni80   1.921       .  S
O75        C1908   1.282       .  A
O76         Ni80   1.924       .  S
O76        C1907   1.283       .  A
O77       Ni1904   1.911   1_455  S
O77          C82   1.280       .  A
O78         Ni80   1.903       .  S
O78          C81   1.278       .  A
Ni79       O1895   1.912   1_455  S
Ni79      Ni1904   2.387   1_455  S
Ni80       O1901   1.910       .  S
Ni80      Ni1903   2.384       .  S
C81         C709   1.480       .  S
C82         C724   1.477       .  S
C83        O1900   1.280       .  A
C83         C853   1.474       .  S
C84        O1899   1.280       .  A
C84         C700   1.484       .  S
O85         Ni93   1.910       .  S
O85        C1007   1.280       .  A
O86         Ni93   1.914       .  S
O86        C1008   1.282       .  A
O87         Ni93   1.908       .  S
O87        C1009   1.281       .  A
O88         Ni93   1.907       .  S
O88        C1010   1.279       .  A
O89         Ni94   1.925       .  S
O89          C98   1.283       .  A
O90         Ni94   1.923       .  S
O90          C97   1.283       .  A
O91         Ni94   1.914       .  S
O91          C96   1.280       .  A
O92         Ni94   1.915       .  S
O92          C95   1.282       .  A
Ni93      Ni1006   2.387       .  S
Ni94      Ni1005   2.386   1_545  S
C95         O997   1.279   1_545  A
C95         C760   1.482       .  S
C96         O998   1.282   1_545  A
C96         C748   1.483       .  S
C97         O999   1.280   1_545  A
C97         C685   1.484       .  S
C98        O1000   1.280   1_545  A
C98         C829   1.484       .  S
O99        Ni107   1.909       .  S
O99         C109   1.281       .  A
O100       Ni107   1.908       .  S
O100        C110   1.281       .  A
O101       Ni107   1.919       .  S
O101        C111   1.281       .  A
O102       Ni107   1.921       .  S
O102        C112   1.282       .  A
O103       Ni108   1.915       .  S
O103        C112   1.281       .  A
O104       Ni108   1.913       .  S
O104        C111   1.282       .  A
O105       Ni108   1.902       .  S
O105        C110   1.278       .  A
O106       Ni108   1.910       .  S
O106        C109   1.280       .  A
Ni107      Ni108   2.387       .  S
C109        C721   1.478       .  S
C110        C712   1.480       .  S
C111        C673   1.484       .  S
C112        C784   1.480       .  S
O113       Ni121   1.917       .  S
O113        C123   1.282       .  A
O114      Ni1033   1.916   1_545  S
O114        C124   1.281       .  A
O115       Ni121   1.914       .  S
O115        C125   1.281       .  A
O116       Ni121   1.916       .  S
O116        C126   1.281       .  A
O117       Ni122   1.914       .  S
O117       C2862   1.281   1_445  A
O118       Ni122   1.915       .  S
O118       C2861   1.282   1_445  A
O119       Ni122   1.913       .  S
O119       C1948   1.281   1_455  A
O120      Ni1034   1.906       .  S
O120       C1947   1.280   1_455  A
Ni121      O1026   1.917       .  S
Ni121     Ni2858   2.387       .  S
Ni122      O1032   1.912   1_545  S
Ni122     Ni2857   2.385   1_445  S
C123       O1944   1.280       .  A
C123       C2461   1.480       .  S
C124       O1943   1.281       .  A
C124       C2473   1.488       .  S
C125       O2854   1.281       .  A
C125       C2485   1.481       .  S
C126       O2853   1.281       .  A
C126        C889   1.482       .  S
O127       Ni135   1.913       .  S
O127        C137   1.281   1_455  A
O128       Ni135   1.915       .  S
O128        C138   1.281   1_455  A
O129       Ni135   1.912       .  S
O129        C139   1.280   1_455  A
O130       Ni135   1.912       .  S
O130        C140   1.281   1_455  A
O131       Ni136   1.917       .  S
O131       C1964   1.281       .  A
O132       Ni136   1.915       .  S
O132       C1963   1.281       .  A
O133       Ni136   1.913       .  S
O133       C1962   1.281       .  A
O134       Ni136   1.910       .  S
O134       C1961   1.280       .  A
Ni135     Ni1960   2.388   1_455  S
Ni136     Ni1959   2.386       .  S
C137       O1958   1.280       .  A
C137        C640   1.479       .  S
C138       O1957   1.281       .  A
C138        C652   1.482       .  S
C139       O1956   1.281       .  A
C139        C628   1.479       .  S
C140       O1955   1.281       .  A
C140        C844   1.481       .  S
O141      Ni1061   1.911   1_545  S
O141        C151   1.280       .  A
O142       Ni149   1.916       .  S
O142        C152   1.281       .  A
O143       Ni149   1.912       .  S
O143        C153   1.281       .  A
O144       Ni149   1.914       .  S
O144        C154   1.282       .  A
O145       Ni150   1.915       .  S
O145       C1066   1.281       .  A
O146       Ni150   1.914       .  S
O146       C1065   1.280       .  A
O147      Ni1062   1.915       .  S
O147        C152   1.281       .  A
O148       Ni150   1.922       .  S
O148        C151   1.283       .  A
Ni149      O1053   1.915       .  S
Ni149     Ni1062   2.385       .  S
Ni150      O1059   1.915   1_545  S
Ni150     Ni1061   2.385   1_545  S
C151        C601   1.487       .  S
C152        C589   1.482       .  S
C153       O1058   1.280       .  A
C153        C817   1.484       .  S
C154       O1057   1.281       .  A
C154        C616   1.490       .  S
O155       Ni163   1.913       .  S
O155        C165   1.281       .  A
O156       Ni163   1.911       .  S
O156        C166   1.281       .  A
O157       Ni163   1.913       .  S
O157        C167   1.282       .  A
O158       Ni163   1.914       .  S
O158        C168   1.280       .  A
O159       Ni164   1.914       .  S
O159        C168   1.281       .  A
O160       Ni164   1.920       .  S
O160        C167   1.281       .  A
O161       Ni164   1.920       .  S
O161        C166   1.282       .  A
O162       Ni164   1.920       .  S
O162        C165   1.281       .  A
Ni163      Ni164   2.386       .  S
C165        C769   1.479       .  S
C166        C580   1.490       .  S
C167        C604   1.486       .  S
C168        C592   1.480       .  S
O169      Ni1089   1.913       .  S
O169        C179   1.280       .  A
O170      Ni2001   1.914   1_455  S
O170        C180   1.281       .  A
O171       Ni177   1.915       .  S
O171       C2917   1.280       .  A
O172       Ni177   1.911       .  S
O172       C2918   1.279       .  A
O173       Ni178   1.909       .  S
O173        C182   1.279   1_455  A
O174       Ni178   1.910       .  S
O174        C181   1.281   1_455  A
O175      Ni1090   1.908   1_545  S
O175        C180   1.281       .  A
O176      Ni2002   1.910       .  S
O176        C179   1.281       .  A
Ni177      O1081   1.911   1_545  S
Ni177      O1994   1.918       .  S
Ni177     Ni2914   2.389   1_545  S
Ni178      O1087   1.912       .  S
Ni178      O2000   1.912   1_455  S
Ni178     Ni2913   2.386   1_455  S
C179        C544   1.488       .  S
C180        C553   1.483       .  S
C181       O2907   1.281       .  A
C181        C565   1.482       .  S
C182       O2908   1.281       .  A
C182        C664   1.472       .  S
O183       Ni191   1.910       .  S
O183        C193   1.281       .  A
O184      Ni2015   1.909       .  S
O184        C194   1.279       .  A
O185       Ni191   1.913       .  S
O185        C195   1.280       .  A
O186       Ni191   1.913       .  S
O186        C196   1.280       .  A
O187       Ni192   1.910       .  S
O187       C2020   1.281       .  A
O188       Ni192   1.907       .  S
O188       C2019   1.280       .  A
O189       Ni192   1.914       .  S
O189        C194   1.281       .  A
O190      Ni2016   1.911   1_455  S
O190        C193   1.280       .  A
Ni191      O2008   1.912   1_455  S
Ni191     Ni2016   2.384   1_455  S
Ni192      O2014   1.914       .  S
Ni192     Ni2015   2.387       .  S
C193        C517   1.482       .  S
C194        C505   1.475       .  S
C195       O2012   1.282   1_455  A
C195        C529   1.488       .  S
C196       O2011   1.281   1_455  A
C196        C625   1.484       .  S
O197       Ni205   1.905       .  S
O197        C207   1.279       .  A
O198      Ni1117   1.915   1_545  S
O198        C208   1.281       .  A
O199       Ni205   1.917       .  S
O199        C209   1.281       .  A
O200       Ni205   1.916       .  S
O200        C210   1.281       .  A
O201       Ni206   1.909       .  S
O201       C1122   1.281   1_545  A
O202       Ni206   1.909       .  S
O202       C1121   1.280   1_545  A
O203       Ni206   1.909       .  S
O203        C208   1.280       .  A
O204      Ni1118   1.916       .  S
O204        C207   1.282       .  A
Ni205      O1110   1.901       .  S
Ni205     Ni1118   2.386       .  S
Ni206      O1116   1.909   1_545  S
Ni206     Ni1117   2.386   1_545  S
C207        C520   1.481       .  S
C208        C508   1.475       .  S
C209       O1114   1.281       .  A
C209        C613   1.476       .  S
C210       O1113   1.281       .  A
C210        C493   1.491       .  S
O211       Ni219   1.913       .  S
O211        C221   1.282       .  A
O212       Ni219   1.910       .  S
O212        C222   1.281       .  A
O213       Ni219   1.920       .  S
O213        C223   1.282       .  A
O214       Ni219   1.921       .  S
O214        C224   1.282       .  A
O215       Ni220   1.911       .  S
O215        C224   1.280       .  A
O216       Ni220   1.912       .  S
O216        C223   1.279       .  A
O217       Ni220   1.912       .  S
O217        C222   1.281       .  A
O218       Ni220   1.910       .  S
O218        C221   1.280       .  A
Ni219      Ni220   2.385       .  S
C221        C541   1.488       .  S
C222        C556   1.483       .  S
C223        C577   1.476       .  S
C224        C481   1.486       .  S
O225       Ni233   1.910       .  S
O225       C2971   1.280       .  A
O226       Ni233   1.911       .  S
O226       C2972   1.280       .  A
O227      Ni2057   1.911   1_455  S
O227       C1149   1.281       .  A
O228       Ni233   1.912       .  S
O228       C1150   1.282       .  A
O229      Ni2058   1.914       .  S
O229        C238   1.281       .  A
O230       Ni234   1.914       .  S
O230        C237   1.281       .  A
O231       Ni234   1.911       .  S
O231        C236   1.280   1_455  A
O232       Ni234   1.910       .  S
O232        C235   1.280   1_455  A
Ni233      O2051   1.915       .  S
Ni233     Ni2970   2.383       .  S
Ni234      O2053   1.911   1_455  S
Ni234     Ni2969   2.387   1_445  S
C235       O2961   1.282   1_545  A
C235        C469   1.481       .  S
C236       O2962   1.281   1_545  A
C236        C736   1.480       .  S
C237       O1139   1.280   1_545  A
C237        C457   1.477   1_545  S
C238       O1140   1.280   1_545  A
C238        C445   1.484       .  S
O239      Ni2071   1.912       .  S
O239        C249   1.281       .  A
O240       Ni247   1.912       .  S
O240        C250   1.281       .  A
O241       Ni247   1.913       .  S
O241        C251   1.280   1_455  A
O242       Ni247   1.912       .  S
O242        C252   1.280   1_455  A
O243       Ni248   1.914       .  S
O243       C2076   1.281       .  A
O244       Ni248   1.914       .  S
O244       C2075   1.282       .  A
O245      Ni2072   1.909   1_455  S
O245        C250   1.280       .  A
O246       Ni248   1.911       .  S
O246        C249   1.280       .  A
Ni247      O2063   1.911   1_455  S
Ni247     Ni2072   2.388   1_455  S
Ni248      O2069   1.911       .  S
Ni248     Ni2071   2.384       .  S
C249        C412   1.486       .  S
C250        C421   1.477       .  S
C251       O2068   1.281       .  A
C251        C697   1.484       .  S
C252       O2067   1.281       .  A
C252        C433   1.477       .  S
O253       Ni261   1.910       .  S
O253        C263   1.280       .  A
O254       Ni261   1.909       .  S
O254        C264   1.280       .  A
O255       Ni261   1.909       .  S
O255        C265   1.279       .  A
O256       Ni261   1.908       .  S
O256        C266   1.280       .  A
O257       Ni262   1.913       .  S
O257       C1178   1.281       .  A
O258       Ni262   1.909       .  S
O258       C1177   1.280   1_545  A
O259       Ni262   1.907       .  S
O259       C1176   1.281       .  A
O260       Ni262   1.908       .  S
O260       C1175   1.280   1_545  A
Ni261     Ni1174   2.386       .  S
Ni262     Ni1173   2.386   1_545  S
C263       O1172   1.281       .  A
C263        C460   1.480       .  S
C264       O1171   1.282       .  A
C264        C448   1.485       .  S
C265       O1170   1.281       .  A
C265        C397   1.477       .  S
C266       O1169   1.282       .  A
C266        C688   1.483       .  S
O267       Ni275   1.909       .  S
O267        C277   1.280       .  A
O268       Ni275   1.908       .  S
O268        C278   1.281       .  A
O269       Ni275   1.921       .  S
O269        C279   1.282       .  A
O270       Ni275   1.922       .  S
O270        C280   1.282       .  A
O271       Ni276   1.911       .  S
O271        C280   1.280       .  A
O272       Ni276   1.911       .  S
O272        C279   1.279       .  A
O273       Ni276   1.916       .  S
O273        C278   1.281       .  A
O274       Ni276   1.911       .  S
O274        C277   1.281       .  A
Ni275      Ni276   2.387       .  S
C277        C424   1.475       .  S
C278        C409   1.485       .  S
C279        C385   1.477       .  S
C280        C676   1.485       .  S
O281      Ni1201   1.917   1_545  S
O281        C291   1.282       .  A
O282      Ni2113   1.905       .  S
O282        C292   1.280       .  A
O283       Ni289   1.907       .  S
O283        C293   1.279   1_455  A
O284       Ni289   1.907       .  S
O284        C294   1.280   1_455  A
O285       Ni290   1.919       .  S
O285       C3030   1.281       .  A
O286       Ni290   1.919       .  S
O286       C3029   1.282       .  A
O287      Ni1202   1.917       .  S
O287        C292   1.281       .  A
O288      Ni2114   1.905   1_455  S
O288        C291   1.279       .  A
Ni289      O1193   1.905       .  S
Ni289      O2106   1.904   1_455  S
Ni289     Ni3026   2.387   1_455  S
Ni290      O1199   1.912   1_545  S
Ni290      O2112   1.913       .  S
Ni290     Ni3025   2.386   1_545  S
C291        C373   1.481       .  S
C292        C364   1.487       .  S
C293       O3022   1.281       .  A
C293       C1384   1.475       .  S
C294       O3021   1.282       .  A
C294        C568   1.482       .  S
O295      Ni2127   1.913   1_455  S
O295        C305   1.280       .  A
O296       Ni303   1.908       .  S
O296        C306   1.280       .  A
O297       Ni303   1.907       .  S
O297       C2131   1.280       .  A
O298       Ni303   1.909       .  S
O298       C2132   1.280       .  A
O299       Ni304   1.913       .  S
O299        C308   1.280   1_455  A
O300       Ni304   1.914       .  S
O300        C307   1.282       .  A
O301      Ni2128   1.912       .  S
O301        C306   1.280       .  A
O302       Ni304   1.912       .  S
O302        C305   1.281       .  A
Ni303      O2119   1.906       .  S
Ni303     Ni2128   2.387       .  S
Ni304      O2125   1.914   1_455  S
Ni304     Ni2127   2.386   1_455  S
C305        C349   1.476       .  S
C306        C337   1.478       .  S
C307       O2121   1.279   1_455  A
C307        C532   1.488       .  S
C308       O2122   1.281       .  A
C308        C436   1.481       .  S
O309      Ni1229   1.914       .  S
O309        C319   1.280       .  A
O310       Ni317   1.910       .  S
O310        C320   1.280       .  A
O311       Ni317   1.904       .  S
O311       C1233   1.278   1_545  A
O312       Ni317   1.904       .  S
O312       C1234   1.278   1_545  A
O313       Ni318   1.911       .  S
O313        C322   1.281       .  A
O314       Ni318   1.908       .  S
O314        C321   1.280       .  A
O315      Ni1230   1.911   1_545  S
O315        C320   1.281       .  A
O316       Ni318   1.911       .  S
O316        C319   1.280       .  A
Ni317      O1221   1.908   1_545  S
Ni317     Ni1230   2.384   1_545  S
Ni318      O1227   1.912       .  S
Ni318     Ni1229   2.385       .  S
C319        C352   1.476       .  S
C320        C340   1.479       .  S
C321       O1223   1.282       .  A
C321        C400   1.484       .  S
C322       O1224   1.281       .  A
C322        C496   1.491       .  S
O323       Ni331   1.910       .  S
O323        C333   1.281       .  A
O324       Ni331   1.910       .  S
O324        C334   1.281       .  A
O325       Ni331   1.907       .  S
O325        C335   1.279       .  A
O326       Ni331   1.907       .  S
O326        C336   1.279       .  A
O327       Ni332   1.913       .  S
O327        C336   1.282       .  A
O328       Ni332   1.916       .  S
O328        C335   1.282       .  A
O329       Ni332   1.921       .  S
O329        C334   1.282       .  A
O330       Ni332   1.922       .  S
O330        C333   1.282       .  A
Ni331      Ni332   2.384       .  S
C333        C484   1.486       .  S
C334        C388   1.489       .  S
C335        C361   1.488       .  S
C336        C376   1.480       .  S
C337        C338   1.404       .  A
C337        C342   1.413       .  A
C338        C339   1.396       .  A
C338        H343   1.085       .  S
C339        C340   1.413       .  A
C339        C346   1.445       .  S
C340        C341   1.406       .  A
C341        C342   1.399       .  A
C341        H344   1.085       .  S
C342        C345   1.445       .  S
C345        N347   1.158       .  T
C346        N348   1.157       .  T
C349        C350   1.403       .  A
C349        C354   1.413       .  A
C350        C351   1.398       .  A
C350        H355   1.085       .  S
C351        C352   1.412       .  A
C351        C358   1.445       .  S
C352        C353   1.403       .  A
C353        C354   1.400       .  A
C353        H356   1.085       .  S
C354        C357   1.445       .  S
C357        N359   1.157       .  T
C358        N360   1.157       .  T
C361        C362   1.407       .  A
C361        C366   1.416       .  A
C362        C363   1.401       .  A
C362        H367   1.084       .  S
C363        C364   1.416       .  A
C363        C370   1.445       .  S
C364        C365   1.405       .  A
C365        C366   1.395       .  A
C365        H368   1.085       .  S
C366        C369   1.445       .  S
C369        N371   1.157       .  T
C370        N372   1.158       .  T
C373        C374   1.405       .  A
C373        C378   1.416       .  A
C374        C375   1.399       .  A
C374        H379   1.085       .  S
C375        C376   1.415       .  A
C375        C382   1.445       .  S
C376        C377   1.403       .  A
C377        C378   1.396       .  A
C377        H380   1.085       .  S
C378        C381   1.445       .  S
C381        N383   1.157       .  T
C382        N384   1.158       .  T
C385        C386   1.404       .  A
C385        C390   1.409       .  A
C386        C387   1.402       .  A
C386        H391   1.085       .  S
C387        C388   1.417       .  A
C387        C394   1.444       .  S
C388        C389   1.408       .  A
C389        C390   1.399       .  A
C389        H392   1.084       .  S
C390        C393   1.445       .  S
C393        N395   1.157       .  T
C394        N396   1.157       .  T
C397        C402   1.412       .  A
C397       C1310   1.403       .  A
C398        C399   1.396       .  A
C398       C1309   1.400   1_545  A
C398        H403   1.085       .  S
C399       C1312   1.418   1_545  A
C399        C406   1.445       .  S
C400        C401   1.407       .  A
C400       C1311   1.415       .  A
C401        C402   1.398       .  A
C401        H404   1.085       .  S
C402        C405   1.445       .  S
C405        N407   1.157       .  T
C406        N408   1.157       .  T
C409        C410   1.405       .  A
C409        C414   1.415       .  A
C410        C411   1.397       .  A
C410        H415   1.085       .  S
C411        C412   1.416       .  A
C411        C418   1.445       .  S
C412        C413   1.406       .  A
C413        C414   1.400       .  A
C413        H416   1.085       .  S
C414        C417   1.445       .  S
C417        N419   1.157       .  T
C418        N420   1.157       .  T
C421        C422   1.404       .  A
C421        C426   1.414       .  A
C422        C423   1.397       .  A
C422        H427   1.085       .  S
C423        C424   1.412       .  A
C423        C430   1.445       .  S
C424        C425   1.404       .  A
C425        C426   1.398       .  A
C425        H428   1.085       .  S
C426        C429   1.445       .  S
C429        N431   1.157       .  T
C430        N432   1.157       .  T
C433        C434   1.403       .  A
C433       C2262   1.412       .  A
C434        C435   1.399       .  A
C434        H439   1.085       .  S
C435        C436   1.414       .  A
C435        C442   1.444       .  S
C436       C2261   1.405       .  A
C437        C438   1.399       .  A
C437       C2260   1.404       .  A
C437        H440   1.085       .  S
C438       C2257   1.413       .  A
C438        C441   1.444       .  S
C441        N443   1.157       .  T
C442        N444   1.157   1_655  T
C445        C450   1.415       .  A
C445       C1358   1.407   1_545  A
C446        C447   1.397       .  A
C446       C1357   1.405       .  A
C446        H451   1.085       .  S
C447        C448   1.416       .  A
C447        C454   1.445       .  S
C448       C1361   1.405       .  A
C449        C450   1.397       .  A
C449       C1360   1.407       .  A
C449        H452   1.085       .  S
C450        C453   1.445       .  S
C453        N455   1.157       .  T
C454        N456   1.157       .  T
C457        C462   1.412   1_565  A
C457       C1370   1.404       .  A
C458        C459   1.397       .  A
C458       C1369   1.403       .  A
C458        H463   1.085       .  S
C459        C460   1.414       .  A
C459        C466   1.444       .  S
C460       C1373   1.405       .  A
C461        C462   1.397       .  A
C461       C1372   1.406   1_545  A
C461        H464   1.085       .  S
C462        C465   1.445       .  S
C465        N467   1.157       .  T
C466        N468   1.157       .  T
C469       C1382   1.405   1_545  A
C469       C2298   1.416       .  A
C470        C471   1.396       .  A
C470       C1381   1.406       .  A
C470        H475   1.084       .  S
C471       C1384   1.410       .  A
C471        C478   1.445       .  S
C472       C1205   1.475       .  S
C472       C1383   1.412   1_545  A
C472       C2297   1.401       .  A
C473        C474   1.400       .  A
C473       C2296   1.403       .  A
C473        H476   1.085       .  S
C474       C2293   1.417       .  A
C474        C477   1.445       .  S
C477        N479   1.157       .  T
C478        N480   1.157       .  T
C481        C482   1.406       .  A
C481        C486   1.415       .  A
C482        C483   1.403       .  A
C482        H487   1.085       .  S
C483        C484   1.415       .  A
C483        C490   1.444       .  S
C484        C485   1.404       .  A
C485        C486   1.397       .  A
C485        H488   1.085       .  S
C486        C489   1.445       .  S
C489        N491   1.157       .  T
C490        N492   1.157       .  T
C493        C498   1.416       .  A
C493       C1406   1.408       .  A
C494        C495   1.396       .  A
C494       C1405   1.404   1_545  A
C494        H499   1.085       .  S
C495       C1408   1.415   1_545  A
C495        C502   1.445       .  S
C496        C497   1.407       .  A
C496       C1407   1.417       .  A
C497        C498   1.399       .  A
C497        H500   1.085       .  S
C498        C501   1.445       .  S
C501        N503   1.157       .  T
C502        N504   1.157       .  T
C505        C506   1.404       .  A
C505        C510   1.412       .  A
C506        C507   1.399       .  A
C506        H511   1.085       .  S
C507        C508   1.412       .  A
C507        C514   1.445       .  S
C508        C509   1.403       .  A
C509        C510   1.397       .  A
C509        H512   1.085       .  S
C510        C513   1.445       .  S
C513        N515   1.157       .  T
C514        N516   1.157       .  T
C517        C518   1.404       .  A
C517        C522   1.415       .  A
C518        C519   1.396       .  A
C518        H523   1.085       .  S
C519        C520   1.415       .  A
C519        C526   1.445       .  S
C520        C521   1.405       .  A
C521        C522   1.399       .  A
C521        H524   1.085       .  S
C522        C525   1.444       .  S
C525        N527   1.157       .  T
C526        N528   1.157       .  T
C529        C530   1.406   1_455  A
C529       C2358   1.416       .  A
C530        C531   1.398       .  A
C530        H535   1.085       .  S
C531        C532   1.417   1_655  A
C531        C538   1.445       .  S
C532       C2357   1.406       .  A
C533        C534   1.400       .  A
C533       C2356   1.404       .  A
C533        H536   1.085       .  S
C534       C2353   1.414       .  A
C534        C537   1.444       .  S
C537        N539   1.157       .  T
C538        N540   1.158       .  T
C541        C542   1.407       .  A
C541        C546   1.417       .  A
C542        C543   1.399       .  A
C542        H547   1.085       .  S
C543        C544   1.417       .  A
C543        C550   1.445       .  S
C544        C545   1.406       .  A
C545        C546   1.398       .  A
C545        H548   1.085       .  S
C546        C549   1.445       .  S
C549        N551   1.158       .  T
C550        N552   1.158       .  T
C553        C554   1.405       .  A
C553        C558   1.414       .  A
C554        C555   1.397       .  A
C554        H559   1.085       .  S
C555        C556   1.414       .  A
C555        C562   1.445       .  S
C556        C557   1.406       .  A
C557        C558   1.399       .  A
C557        H560   1.085       .  S
C558        C561   1.445       .  S
C561        N563   1.157       .  T
C562        N564   1.157       .  T
C565       C2390   1.404       .  A
C565       C1482   1.415       .  A
C566        C567   1.399       .  A
C566       C2389   1.406       .  A
C566        H571   1.085       .  S
C567       C2392   1.417       .  A
C567        C574   1.445       .  S
C568       C2391   1.414       .  A
C568       C1481   1.405       .  A
C569        C570   1.402       .  A
C569       C1480   1.405       .  A
C569        H572   1.085       .  S
C570       C1477   1.414       .  A
C570        C573   1.444       .  S
C573        N575   1.157       .  T
C574        N576   1.158       .  T
C577        C578   1.403       .  A
C577        C582   1.408       .  A
C578        C579   1.401   1_556  A
C578        H583   1.085       .  S
C579        C580   1.418       .  A
C579        C586   1.445       .  S
C580        C581   1.409       .  A
C581        C582   1.399   1_554  A
C581        H584   1.084       .  S
C582        C585   1.445       .  S
C585        N587   1.157       .  T
C586        N588   1.158       .  T
C589        C590   1.405       .  A
C589        C594   1.414       .  A
C590        C591   1.401       .  A
C590        H595   1.085       .  S
C591        C592   1.414       .  A
C591        C598   1.444       .  S
C592        C593   1.402       .  A
C593        C594   1.397       .  A
C593        H596   1.085       .  S
C594        C597   1.441       .  S
C597        N599   1.156       .  T
C598        N600   1.157       .  T
C601        C602   1.406       .  A
C601        C606   1.416       .  A
C602        C603   1.403       .  A
C602        H607   1.085       .  S
C603        C604   1.415       .  A
C603        C610   1.444       .  S
C604        C605   1.404       .  A
C605        C606   1.398       .  A
C605        H608   1.085       .  S
C606        C609   1.445       .  S
C609        N611   1.157       .  T
C610        N612   1.157       .  T
C613        C614   1.402       .  A
C613       C1530   1.409       .  A
C614        C615   1.402   1_556  A
C614        H619   1.085       .  S
C615        C616   1.419       .  A
C615        C622   1.444       .  S
C616       C1529   1.408       .  A
C617        C618   1.398   1_554  A
C617       C1528   1.403       .  A
C617        H620   1.085       .  S
C618       C1525   1.414       .  A
C618        C621   1.445       .  S
C621        N623   1.157   1_545  T
C622        N624   1.158       .  T
C625        C630   1.415       .  A
C625       C2450   1.406   1_455  A
C626        C627   1.399   1_556  A
C626       C2449   1.408       .  A
C626        H631   1.084       .  S
C627       C2452   1.410       .  A
C627        C634   1.445       .  S
C628        C629   1.403   1_655  A
C628       C2451   1.412       .  A
C629        C630   1.399   1_554  A
C629        H632   1.085       .  S
C630        C633   1.445       .  S
C633        N635   1.157       .  T
C634        N636   1.157       .  T
C637       C1947   1.478       .  S
C637        C642   1.413       .  A
C637       C2462   1.404   1_655  A
C638        C639   1.398       .  A
C638       C2461   1.405       .  A
C638        H643   1.085       .  S
C639       C2464   1.414       .  A
C639        C646   1.445       .  S
C640        C641   1.406       .  A
C640       C2463   1.412   1_655  A
C641        C642   1.401       .  A
C641        H644   1.085       .  S
C642        C645   1.445       .  S
C645        N647   1.157       .  T
C646        N648   1.157       .  T
C649       C1948   1.482       .  S
C649        C650   1.405   1_655  A
C649       C2478   1.413       .  A
C650        C651   1.400       .  A
C650        H655   1.085       .  S
C651        C652   1.414   1_455  A
C651        C658   1.444       .  S
C652       C2477   1.405       .  A
C653        C654   1.400       .  A
C653       C2476   1.408       .  A
C653        H656   1.085       .  S
C654       C2473   1.416       .  A
C654        C657   1.445       .  S
C657        N659   1.158       .  T
C658        N660   1.157       .  T
C661       C1949   1.488       .  S
C661        C662   1.409   1_655  A
C661       C3402   1.418       .  A
C662        C663   1.398   1_554  A
C662        H667   1.084       .  S
C663        C664   1.408   1_455  A
C663        C670   1.445       .  S
C664       C3401   1.401       .  A
C665        C666   1.400   1_556  A
C665       C3400   1.400       .  A
C665        H668   1.084       .  S
C666       C3397   1.419       .  A
C666        C669   1.445       .  S
C669        N671   1.158       .  T
C670        N672   1.157       .  T
C673        C674   1.404       .  A
C673        C678   1.414       .  A
C674        C675   1.398       .  A
C674        H679   1.085       .  S
C675        C676   1.415       .  A
C675        C682   1.445       .  S
C676        C677   1.406       .  A
C677        C678   1.403       .  A
C677        H680   1.085       .  S
C678        C681   1.444       .  S
C681        N683   1.157       .  T
C682        N684   1.157       .  T
C685        C690   1.413       .  A
C685       C1598   1.406   1_545  A
C686        C687   1.396       .  A
C686       C1597   1.404       .  A
C686        H691   1.085       .  S
C687        C688   1.415       .  A
C687        C694   1.445       .  S
C688       C1601   1.406       .  A
C689        C690   1.401       .  A
C689       C1600   1.407       .  A
C689        H692   1.085       .  S
C690        C693   1.444       .  S
C693        N695   1.157       .  T
C694        N696   1.157       .  T
C697        C702   1.415   1_655  A
C697       C2522   1.405       .  A
C698        C699   1.400       .  A
C698       C2521   1.408       .  A
C698        H703   1.085       .  S
C699       C2524   1.415       .  A
C699        C706   1.445       .  S
C700        C701   1.406   1_655  A
C700       C2523   1.415       .  A
C701        C702   1.399       .  A
C701        H704   1.085       .  S
C702        C705   1.445       .  S
C705        N707   1.158       .  T
C706        N708   1.157       .  T
C709        C710   1.404       .  A
C709        C714   1.416       .  A
C710        C711   1.395       .  A
C710        H715   1.085       .  S
C711        C712   1.416       .  A
C711        C718   1.445       .  S
C712        C713   1.405       .  A
C713        C714   1.395       .  A
C713        H716   1.085       .  S
C714        C717   1.445       .  S
C717        N719   1.157       .  T
C718        N720   1.158       .  T
C721        C722   1.404       .  A
C721        C726   1.413       .  A
C722        C723   1.397       .  A
C722        H727   1.085       .  S
C723        C724   1.413       .  A
C723        C730   1.445       .  S
C724        C725   1.404       .  A
C725        C726   1.398       .  A
C725        H728   1.085       .  S
C726        C729   1.445       .  S
C729        N731   1.157       .  T
C730        N732   1.157       .  T
C733        C738   1.414       .  A
C733       C3470   1.405   1_545  A
C734        C735   1.397       .  A
C734       C3469   1.407       .  A
C734        H739   1.085       .  S
C735       C3472   1.417       .  A
C735        C742   1.445       .  S
C736        C737   1.405       .  A
C736       C3471   1.413   1_545  A
C737        C738   1.399       .  A
C737        H740   1.085       .  S
C738        C741   1.445       .  S
C741        N743   1.157       .  T
C742        N744   1.157       .  T
C745        C746   1.406       .  A
C745       C1662   1.415   1_545  A
C746        C747   1.401       .  A
C746        H751   1.085       .  S
C747        C748   1.416       .  A
C747        C754   1.444       .  S
C748       C1661   1.404   1_545  A
C749        C750   1.399       .  A
C749       C1660   1.406       .  A
C749        H752   1.085       .  S
C750       C1657   1.415       .  A
C750        C753   1.445       .  S
C753        N755   1.158       .  T
C754        N756   1.157       .  T
C757        C758   1.404   1_545  A
C757       C1674   1.414       .  A
C758        C759   1.399       .  A
C758        H763   1.085       .  S
C759        C760   1.415   1_565  A
C759        C766   1.444       .  S
C760       C1673   1.405       .  A
C761        C762   1.398       .  A
C761       C1672   1.405       .  A
C761        H764   1.085       .  S
C762       C1669   1.417       .  A
C762        C765   1.446       .  S
C765        N767   1.158       .  T
C766        N768   1.157       .  T
C769        C770   1.402       .  A
C769        C774   1.414       .  A
C770        C771   1.397       .  A
C770        H775   1.085       .  S
C771        C772   1.413       .  A
C771        C778   1.445       .  S
C772        C773   1.404       .  A
C773        C774   1.404       .  A
C773        H776   1.085       .  S
C774        C777   1.444       .  S
C777        N779   1.157       .  T
C778        N780   1.157       .  T
C781        C782   1.406       .  A
C781        C786   1.419       .  A
C782        C783   1.401       .  A
C782        H787   1.084       .  S
C783        C784   1.413       .  A
C783        C790   1.444       .  S
C784        C785   1.401       .  A
C785        C786   1.401       .  A
C785        H788   1.085       .  S
C786        C789   1.444       .  S
C789        N791   1.157       .  T
C790        N792   1.157       .  T
C793        C794   1.405       .  A
C793        C798   1.414       .  A
C794        C795   1.400       .  A
C794        H799   1.085       .  S
C795        C796   1.414       .  A
C795        C802   1.445       .  S
C796        C797   1.404       .  A
C797        C798   1.398       .  A
C797        H800   1.085       .  S
C798        C801   1.445       .  S
C801        N803   1.157       .  T
C802        N804   1.158       .  T
C805        C806   1.407       .  A
C805        C810   1.415       .  A
C806        C807   1.401       .  A
C806        H811   1.085       .  S
C807        C808   1.415       .  A
C807        C814   1.445       .  S
C808        C809   1.404       .  A
C809        C810   1.394       .  A
C809        H812   1.085       .  S
C810        C813   1.445       .  S
C813        N815   1.157       .  T
C814        N816   1.157       .  T
C817        C822   1.415       .  A
C817       C1730   1.405       .  A
C818        C819   1.397       .  A
C818       C1729   1.406   1_565  A
C818        H823   1.085       .  S
C819       C1732   1.415   1_565  A
C819        C826   1.445       .  S
C820        C821   1.405       .  A
C820       C1731   1.415       .  A
C821        C822   1.400       .  A
C821        H824   1.085       .  S
C822        C825   1.445       .  S
C825        N827   1.157       .  T
C826        N828   1.157       .  T
C829        C834   1.414       .  A
C829       C1742   1.406   1_545  A
C830        C831   1.397       .  A
C830       C1741   1.398       .  A
C830        H835   1.085       .  S
C831        C832   1.421       .  A
C831        C838   1.445       .  S
C832       C1745   1.409       .  A
C833        C834   1.402       .  A
C833       C1744   1.405       .  A
C833        H836   1.085       .  S
C834        C837   1.443       .  S
C837        N839   1.157       .  T
C838        N840   1.158       .  T
C841        C846   1.414   1_655  A
C841       C2666   1.404       .  A
C842        C843   1.400       .  A
C842       C2665   1.406       .  A
C842        H847   1.085       .  S
C843       C2668   1.415       .  A
C843        C850   1.445       .  S
C844        C845   1.405   1_655  A
C844       C2667   1.414       .  A
C845        C846   1.399       .  A
C845        H848   1.085       .  S
C846        C849   1.445       .  S
C849        N851   1.157       .  T
C850        N852   1.157       .  T
C853        C858   1.411   1_655  A
C853       C2678   1.402       .  A
C854        C855   1.403       .  A
C854       C2677   1.405       .  A
C854        H859   1.085       .  S
C855       C2680   1.416       .  A
C855        C862   1.444       .  S
C856        C857   1.406   1_655  A
C856       C2679   1.417       .  A
C857        C858   1.397       .  A
C857        H860   1.084       .  S
C858        C861   1.445       .  S
C861        N863   1.157       .  T
C862        N864   1.157       .  T
C865        C870   1.414   1_655  A
C865       C2690   1.403       .  A
C866        C867   1.398       .  A
C866       C2689   1.406       .  A
C866        H871   1.085       .  S
C867       C2692   1.416       .  A
C867        C874   1.445       .  S
C868        C869   1.405   1_655  A
C868       C2691   1.416       .  A
C869        C870   1.399       .  A
C869        H872   1.085       .  S
C870        C873   1.445       .  S
C873        N875   1.157       .  T
C874        N876   1.158       .  T
C877        C882   1.416   1_655  A
C877       C2702   1.404       .  A
C878        C879   1.397       .  A
C878       C2701   1.405       .  A
C878        H883   1.089       .  S
C879       C2704   1.415       .  A
C879        C886   1.444       .  S
C880        C881   1.405   1_655  A
C880       C2703   1.417       .  A
C881        C882   1.398       .  A
C881        H884   1.091       .  S
C882        C885   1.445       .  S
C885        N887   1.158       .  T
C886        N888   1.157       .  T
C889       C1802   1.406       .  A
C889       C2718   1.413       .  A
C890        C891   1.399       .  A
C890       C1801   1.403       .  A
C890        H895   1.085       .  S
C891       C1804   1.414       .  A
C891        C898   1.445       .  S
C892       C1803   1.415       .  A
C892       C2717   1.405       .  A
C893        C894   1.398       .  A
C893       C2716   1.406   1_455  A
C893        H896   1.085       .  S
C894       C2713   1.418   1_455  A
C894        C897   1.445       .  S
C897        N899   1.157       .  T
C898        N900   1.157       .  T
C901       C2726   1.400       .  A
C901       C1818   1.408   1_665  A
C902        C903   1.399       .  A
C902       C2725   1.401   1_565  A
C902        H907   1.085       .  S
C903       C2728   1.419   1_565  A
C903        C910   1.445       .  S
C904       C2727   1.419       .  A
C904       C1817   1.409   1_665  A
C905        C906   1.401       .  A
C905       C1816   1.409   1_455  A
C905        H908   1.084       .  S
C906       C1813   1.410       .  A
C906        C909   1.445       .  S
C909        N911   1.157       .  T
C910        N912   1.157       .  T
O913       Ni921   1.912       .  S
O913       C2747   1.281       .  A
O914       C2748   1.281       .  A
O915       Ni921   1.909       .  S
O915        C925   1.279       .  A
O916       Ni921   1.911       .  S
O916       C1838   1.280       .  A
O917       Ni922   1.914       .  S
O917        C926   1.281   1_455  A
O918       Ni922   1.915       .  S
O918       C1837   1.283   1_455  A
O919       Ni922   1.907       .  S
O919        C924   1.278   1_455  A
O920        C923   1.280   1_455  A
Ni921     Ni1834   2.385   1_565  S
Ni922     Ni1833   2.383   1_455  S
C923       O2737   1.282       .  A
C923       C1777   1.483       .  S
C924       O2738   1.282       .  A
C924       C1789   1.486       .  S
C925       O1830   1.282   1_565  A
C925       C1804   1.479       .  S
C926       O1828   1.281       .  A
C926       C1816   1.487       .  S
O927       Ni935   1.911       .  S
O927        C937   1.282   1_455  A
O928       Ni935   1.915       .  S
O928        C938   1.282   1_455  A
O929       Ni935   1.904       .  S
O929        C939   1.279   1_455  A
O930       Ni935   1.905       .  S
O930        C940   1.279   1_455  A
O931       Ni936   1.916       .  S
O931       C2764   1.282       .  A
O932       Ni936   1.917       .  S
O932       C2763   1.281       .  A
O933       Ni936   1.910       .  S
O933       C2762   1.280       .  A
O934       Ni936   1.910       .  S
O934       C2761   1.279       .  A
Ni935     Ni2760   2.384   1_455  S
Ni936     Ni2759   2.385       .  S
C937       O2758   1.278       .  A
C937       C1792   1.485       .  S
C938       O2757   1.279       .  A
C938       C1780   1.483       .  S
C939       O2756   1.282       .  A
C939       C1768   1.481       .  S
C940       O2755   1.283       .  A
C940       C1753   1.487       .  S
O941        C951   1.282       .  A
O942       Ni949   1.909       .  S
O942        C952   1.279       .  A
O943       Ni949   1.913       .  S
O943        C953   1.281   1_565  A
O944       Ni949   1.911       .  S
O944        C954   1.280   1_565  A
O945       Ni950   1.917       .  S
O946       Ni950   1.917       .  S
O947        C952   1.283       .  A
O948       Ni950   1.914       .  S
O948        C951   1.280       .  A
C951       C1720   1.490       .  S
C952       C1705   1.481       .  S
C953       C1744   1.481       .  S
C954       C1732   1.489       .  S
O955       Ni963   1.908       .  S
O955        C965   1.280       .  A
O956       Ni963   1.907       .  S
O956        C966   1.279       .  A
O957       Ni963   1.922       .  S
O957        C967   1.283       .  A
O958       Ni963   1.924       .  S
O958        C968   1.283       .  A
O959       Ni964   1.909       .  S
O959        C968   1.280       .  A
O960       Ni964   1.910       .  S
O960        C967   1.279       .  A
O961       Ni964   1.918       .  S
O961        C966   1.282       .  A
O962       Ni964   1.917       .  S
O962        C965   1.281       .  A
Ni963      Ni964   2.384       .  S
C965       C1717   1.489       .  S
C966       C1708   1.480       .  S
C967       C1693   1.487       .  S
C968       C1684   1.486       .  S
O969       Ni977   1.908       .  S
O970      Ni2801   1.917   1_455  S
O971       Ni977   1.910       .  S
O971       C1893   1.280   1_565  A
O972       Ni977   1.909       .  S
O972       C1894   1.279   1_565  A
O973       Ni978   1.922       .  S
O973        C982   1.282       .  A
O974       Ni978   1.922       .  S
O974        C981   1.282       .  A
O975       Ni978   1.905       .  S
O975        C980   1.278       .  A
O976      Ni2802   1.910       .  S
O976        C979   1.281       .  A
Ni977      O2794   1.912       .  S
Ni977     Ni1890   2.387   1_565  S
Ni978      O2800   1.907   1_455  S
Ni978     Ni1889   2.385   1_455  S
C979       C1657   1.482       .  S
C980       C1669   1.484       .  S
C981       O1883   1.280   1_455  A
C981       C1645   1.492       .  S
C982       O1884   1.279   1_455  A
C982       C1813   1.478       .  S
O983      Ni2815   1.915       .  S
O983        C993   1.282       .  A
O984       Ni991   1.902       .  S
O984        C994   1.280       .  A
O985       Ni991   1.907       .  S
O985        C995   1.279   1_455  A
O986       Ni991   1.908   1_655  S
O986        C996   1.281       .  A
O987       Ni992   1.914       .  S
O987       C2820   1.281       .  A
O988       Ni992   1.916       .  S
O988       C2819   1.281       .  A
O989      Ni2816   1.915   1_455  S
O989        C994   1.281       .  A
O990       Ni992   1.906       .  S
O990        C993   1.279       .  A
Ni991      O2807   1.905   1_455  S
Ni991     Ni2816   2.387   1_455  S
Ni992      O2813   1.908       .  S
Ni992     Ni2815   2.387       .  S
C993       C1621   1.480       .  S
C994       C1636   1.480       .  S
C995       O2812   1.281       .  A
C995       C1765   1.474       .  S
C996       O2811   1.280       .  A
C996       C1612   1.484       .  S
O997      Ni1005   1.910       .  S
O998      Ni1005   1.910       .  S
O999      Ni1005   1.908       .  S
O1000     Ni1005   1.909       .  S
O1001     Ni1006   1.913       .  S
O1001      C1010   1.280       .  A
O1002     Ni1006   1.915       .  S
O1002      C1009   1.281       .  A
O1003     Ni1006   1.907       .  S
O1003      C1008   1.279       .  A
O1004     Ni1006   1.912       .  S
O1004      C1007   1.281       .  A
C1007      C1672   1.484       .  S
C1008      C1660   1.482       .  S
C1009      C1597   1.483       .  S
C1010      C1741   1.467       .  S
O1011     Ni1019   1.906       .  S
O1011      C1021   1.279       .  A
O1012     Ni1019   1.906       .  S
O1012      C1022   1.280       .  A
O1013     Ni1019   1.920       .  S
O1013      C1023   1.282       .  A
O1014     Ni1019   1.920       .  S
O1014      C1024   1.283       .  A
O1015     Ni1020   1.911       .  S
O1015      C1024   1.279       .  A
O1016     Ni1020   1.909       .  S
O1016      C1023   1.280       .  A
O1017     Ni1020   1.913       .  S
O1017      C1022   1.281       .  A
O1018     Ni1020   1.913       .  S
O1018      C1021   1.281       .  A
Ni1019    Ni1020   2.387       .  S
C1021      C1633   1.480       .  S
C1022      C1624   1.480       .  S
C1023      C1585   1.480       .  S
C1024      C1696   1.480       .  S
O1025     Ni1033   1.915       .  S
O1025      C1035   1.281       .  A
O1026      C1036   1.281       .  A
O1027     Ni1033   1.916       .  S
O1027      C1037   1.281       .  A
O1028     Ni1033   1.916       .  S
O1028      C1038   1.281       .  A
O1029     Ni1034   1.909       .  S
O1029      C1950   1.279   1_455  A
O1030     Ni1034   1.909       .  S
O1030      C1949   1.281   1_455  A
O1031     Ni1034   1.908       .  S
O1031      C2860   1.280   1_455  A
O1032      C2859   1.281   1_455  A
Ni1033    Ni1946   2.383   1_565  S
Ni1034    Ni1945   2.383   1_455  S
C1035      O2856   1.280       .  A
C1035      C3373   1.486       .  S
C1036      O2855   1.281       .  A
C1036      C3385   1.481       .  S
C1037      O1942   1.281   1_565  A
C1037      C3397   1.489       .  S
C1038      O1941   1.280   1_565  A
C1038      C1801   1.479       .  S
O1039     Ni1047   1.917       .  S
O1039      C1049   1.282   1_455  A
O1040     Ni1047   1.916       .  S
O1040      C1050   1.281   1_455  A
O1041     Ni1047   1.912       .  S
O1041      C1051   1.280   1_455  A
O1042     Ni1047   1.909       .  S
O1042      C1052   1.281   1_455  A
O1043     Ni1048   1.913       .  S
O1043      C2876   1.280       .  A
O1044     Ni1048   1.912       .  S
O1044      C2875   1.280       .  A
O1045     Ni1048   1.913       .  S
O1045      C2874   1.281       .  A
O1046     Ni1048   1.912       .  S
O1046      C2873   1.281       .  A
Ni1047    Ni2872   2.385   1_455  S
Ni1048    Ni2871   2.385       .  S
C1049      O2870   1.280       .  A
C1049      C1552   1.482       .  S
C1050      O2869   1.281       .  A
C1050      C1564   1.487       .  S
C1051      O2868   1.282       .  A
C1051      C1540   1.482   1_655  S
C1052      O2867   1.281       .  A
C1052      C1756   1.486       .  S
O1053      C1063   1.280       .  A
O1054     Ni1061   1.909       .  S
O1054      C1064   1.280       .  A
O1055     Ni1061   1.913       .  S
O1055      C1065   1.282   1_565  A
O1056     Ni1061   1.913       .  S
O1056      C1066   1.281   1_565  A
O1057     Ni1062   1.917       .  S
O1058     Ni1062   1.914       .  S
O1059      C1064   1.281       .  A
O1060     Ni1062   1.914       .  S
O1060      C1063   1.281       .  A
C1063      C1513   1.481       .  S
C1064      C1501   1.479       .  S
C1065      C1729   1.489       .  S
C1066      C1528   1.480       .  S
O1067     Ni1075   1.909       .  S
O1067      C1077   1.280       .  A
O1068     Ni1075   1.908       .  S
O1068      C1078   1.280       .  A
O1069     Ni1075   1.923       .  S
O1069      C1079   1.283       .  A
O1070     Ni1075   1.920       .  S
O1070      C1080   1.282       .  A
O1071     Ni1076   1.903       .  S
O1071      C1080   1.279       .  A
O1072     Ni1076   1.904       .  S
O1072      C1079   1.278       .  A
O1073     Ni1076   1.925       .  S
O1073      C1078   1.283       .  A
O1074     Ni1076   1.924       .  S
O1074      C1077   1.283       .  A
Ni1075    Ni1076   2.386       .  S
C1077      C1681   1.486       .  S
C1078      C1492   1.489       .  S
C1079      C1516   1.482       .  S
C1080      C1504   1.478       .  S
O1081      C1091   1.281       .  A
O1082     Ni2913   1.913   1_455  S
O1082      C1092   1.280       .  A
O1083     Ni1089   1.910       .  S
O1083      C2005   1.279       .  A
O1084     Ni1089   1.911       .  S
O1084      C2006   1.281       .  A
O1085     Ni1090   1.915       .  S
O1085      C1094   1.281   1_565  A
O1086     Ni1090   1.914       .  S
O1086      C1093   1.281   1_565  A
O1087      C1092   1.281       .  A
O1088     Ni2914   1.911       .  S
O1088      C1091   1.280       .  A
Ni1089     O2906   1.911       .  S
Ni1089    Ni2002   2.385       .  S
Ni1090     O2912   1.910   1_455  S
Ni1090    Ni2001   2.387   1_465  S
C1091      C1456   1.474       .  S
C1092      C1465   1.484       .  S
C1093      O1995   1.281   1_455  A
C1093      C1477   1.483       .  S
C1094      O1996   1.281   1_455  A
C1094      C1576   1.478   1_455  S
O1095     Ni1103   1.904       .  S
O1095      C1105   1.280       .  A
O1096     Ni2927   1.906       .  S
O1096      C1106   1.280       .  A
O1097     Ni1103   1.915       .  S
O1097      C1107   1.281       .  A
O1098     Ni1103   1.914       .  S
O1098      C1108   1.281       .  A
O1099     Ni1104   1.915       .  S
O1099      C2932   1.282       .  A
O1100     Ni1104   1.915       .  S
O1100      C2931   1.281       .  A
O1101     Ni1104   1.914       .  S
O1101      C1106   1.280       .  A
O1102     Ni2928   1.918   1_455  S
O1102      C1105   1.281       .  A
Ni1103     O2920   1.906   1_455  S
Ni1103    Ni2928   2.383   1_455  S
Ni1104     O2926   1.917       .  S
Ni1104    Ni2927   2.385       .  S
C1105      C1429   1.487       .  S
C1106      C1417   1.475       .  S
C1107      O2924   1.282   1_455  A
C1107      C1441   1.492       .  S
C1108      O2923   1.281   1_455  A
C1108      C1537   1.482       .  S
O1109     Ni1117   1.913       .  S
O1109      C1119   1.281       .  A
O1110      C1120   1.278       .  A
O1111     Ni1117   1.917       .  S
O1111      C1121   1.282       .  A
O1112     Ni1117   1.920       .  S
O1112      C1122   1.281       .  A
O1113     Ni1118   1.914       .  S
O1114     Ni1118   1.914       .  S
O1115     Ni1118   1.917       .  S
O1115      C1120   1.282       .  A
O1116      C1119   1.280       .  A
C1119      C1432   1.487       .  S
C1120      C1420   1.475       .  S
C1121      C1525   1.481   1_565  S
C1122      C1405   1.484       .  S
O1123     Ni1131   1.908       .  S
O1123      C1133   1.280       .  A
O1124     Ni1131   1.910       .  S
O1124      C1134   1.281       .  A
O1125     Ni1131   1.920       .  S
O1125      C1135   1.282       .  A
O1126     Ni1131   1.923       .  S
O1126      C1136   1.283       .  A
O1127     Ni1132   1.911       .  S
O1127      C1136   1.280       .  A
O1128     Ni1132   1.913       .  S
O1128      C1135   1.280       .  A
O1129     Ni1132   1.916       .  S
O1129      C1134   1.281       .  A
O1130     Ni1132   1.913       .  S
O1130      C1133   1.280       .  A
Ni1131    Ni1132   2.387       .  S
C1133      C1453   1.474       .  S
C1134      C1468   1.485       .  S
C1135      C1489   1.480       .  S
C1136      C1393   1.484       .  S
O1137     Ni1145   1.922       .  S
O1137      C2059   1.283   1_565  A
O1138     Ni1145   1.920       .  S
O1138      C2060   1.282   1_565  A
O1139     Ni2969   1.907   1_455  S
O1140     Ni1145   1.903       .  S
O1141     Ni2970   1.911       .  S
O1141      C1150   1.279       .  A
O1142     Ni1146   1.911       .  S
O1142      C1149   1.280       .  A
O1143     Ni1146   1.916       .  S
O1143      C1148   1.282       .  A
O1144     Ni1146   1.915       .  S
O1144      C1147   1.281       .  A
Ni1145     O2963   1.906       .  S
Ni1145    Ni2058   2.384   1_565  S
Ni1146     O2965   1.910   1_455  S
Ni1146    Ni2057   2.384   1_455  S
C1147      O2049   1.282   1_455  A
C1147      C1381   1.486   1_455  S
C1148      O2050   1.280   1_455  A
C1148      C1648   1.491       .  S
C1149      C1369   1.478       .  S
C1150      C1357   1.485       .  S
O1151     Ni2983   1.913       .  S
O1151      C1161   1.281       .  A
O1152     Ni1159   1.908       .  S
O1152      C1162   1.281       .  A
O1153     Ni1159   1.907       .  S
O1153      C1163   1.279   1_455  A
O1154     Ni1159   1.907       .  S
O1154      C1164   1.279   1_455  A
O1155     Ni1160   1.916       .  S
O1155      C2988   1.282       .  A
O1156     Ni1160   1.914       .  S
O1156      C2987   1.281       .  A
O1157     Ni2984   1.912   1_455  S
O1157      C1162   1.280       .  A
O1158     Ni1160   1.906       .  S
O1158      C1161   1.279       .  A
Ni1159     O2975   1.907   1_455  S
Ni1159    Ni2984   2.386   1_455  S
Ni1160     O2981   1.909       .  S
Ni1160    Ni2983   2.386       .  S
C1161      C1324   1.482       .  S
C1162      C1333   1.482       .  S
C1163      O2980   1.282       .  A
C1163      C1609   1.485       .  S
C1164      O2979   1.281       .  A
C1164      C1345   1.476       .  S
O1165     Ni1173   1.915       .  S
O1165      C1175   1.281       .  A
O1166     Ni1173   1.910       .  S
O1166      C1176   1.280   1_565  A
O1167     Ni1173   1.920       .  S
O1167      C1177   1.281       .  A
O1168     Ni1173   1.920       .  S
O1168      C1178   1.282   1_565  A
O1169     Ni1174   1.916       .  S
O1170     Ni1174   1.915       .  S
O1171     Ni1174   1.915       .  S
O1172     Ni1174   1.912       .  S
C1175      C1372   1.480       .  S
C1176      C1360   1.485       .  S
C1177      C1309   1.477       .  S
C1178      C1600   1.486       .  S
O1179     Ni1187   1.908       .  S
O1179      C1189   1.280       .  A
O1180     Ni1187   1.904       .  S
O1180      C1190   1.280       .  A
O1181     Ni1187   1.917       .  S
O1181      C1191   1.282       .  A
O1182     Ni1187   1.918       .  S
O1182      C1192   1.281       .  A
O1183     Ni1188   1.911       .  S
O1183      C1192   1.281       .  A
O1184     Ni1188   1.913       .  S
O1184      C1191   1.280       .  A
O1185     Ni1188   1.916       .  S
O1185      C1190   1.281       .  A
O1186     Ni1188   1.910       .  S
O1186      C1189   1.280       .  A
Ni1187    Ni1188   2.387       .  S
C1189      C1336   1.479       .  S
C1190      C1321   1.483       .  S
C1191      C1297   1.478       .  S
C1192      C1588   1.480       .  S
O1193      C1203   1.280       .  A
O1194     Ni3025   1.907       .  S
O1194      C1204   1.280       .  A
O1195     Ni1201   1.908       .  S
O1195      C1205   1.279   1_465  A
O1196     Ni1201   1.910       .  S
O1196      C1206   1.280   1_565  A
O1197     Ni1202   1.916       .  S
O1197      C2118   1.282       .  A
O1198     Ni1202   1.916       .  S
O1198      C2117   1.281       .  A
O1199      C1204   1.281       .  A
O1200     Ni3026   1.916   1_455  S
O1200      C1203   1.281       .  A
Ni1201     O3018   1.915   1_455  S
Ni1201    Ni2114   2.388   1_465  S
Ni1202     O3024   1.914       .  S
Ni1202    Ni2113   2.385       .  S
C1203      C1285   1.482       .  S
C1204      C1276   1.482       .  S
C1205      O2110   1.281       .  A
C1206      O2109   1.282   1_455  A
C1206      C1480   1.482       .  S
O1207     Ni3039   1.908   1_455  S
O1207      C1217   1.279       .  A
O1208     Ni1215   1.912       .  S
O1208      C1218   1.281       .  A
O1209     Ni1215   1.918       .  S
O1209      C3043   1.281       .  A
O1210     Ni1215   1.917       .  S
O1210      C3044   1.282       .  A
O1211     Ni1216   1.914       .  S
O1211      C1220   1.280       .  A
O1212     Ni1216   1.915       .  S
O1212      C1219   1.282       .  A
O1213     Ni3040   1.913       .  S
O1213      C1218   1.281       .  A
O1214     Ni1216   1.910       .  S
O1214      C1217   1.281       .  A
Ni1215     O3031   1.912       .  S
Ni1215    Ni3040   2.385       .  S
Ni1216     O3037   1.909   1_455  S
Ni1216    Ni3039   2.383   1_455  S
C1217      C1261   1.486       .  S
C1218      C1249   1.484       .  S
C1219      O3033   1.280   1_455  A
C1219      C1444   1.492       .  S
C1220      O3034   1.281   1_455  A
C1220      C1348   1.483       .  S
O1221      C1231   1.281       .  A
O1222     Ni1229   1.913       .  S
O1222      C1232   1.280       .  A
O1223     Ni1229   1.918       .  S
O1224     Ni1229   1.918       .  S
O1225     Ni1230   1.924       .  S
O1225      C1234   1.283       .  A
O1226     Ni1230   1.926       .  S
O1226      C1233   1.284       .  A
O1227      C1232   1.281       .  A
O1228     Ni1230   1.909       .  S
O1228      C1231   1.279       .  A
C1231      C1264   1.484       .  S
C1232      C1252   1.483       .  S
C1233      C1312   1.488       .  S
C1234      C1408   1.483       .  S
O1235     Ni1243   1.911       .  S
O1235      C1245   1.280       .  A
O1236     Ni1243   1.911       .  S
O1236      C1246   1.280       .  A
O1237     Ni1243   1.919       .  S
O1237      C1247   1.282       .  A
O1238     Ni1243   1.918       .  S
O1238      C1248   1.282       .  A
O1239     Ni1244   1.903       .  S
O1239      C1248   1.279       .  A
O1240     Ni1244   1.900       .  S
O1240      C1247   1.279       .  A
O1241     Ni1244   1.921       .  S
O1241      C1246   1.283       .  A
O1242     Ni1244   1.922       .  S
O1242      C1245   1.282       .  A
Ni1243    Ni1244   2.385       .  S
C1245      C1396   1.483       .  S
C1246      C1300   1.489       .  S
C1247      C1273   1.481       .  S
C1248      C1288   1.481       .  S
C1249      C1250   1.405       .  A
C1249      C1254   1.415       .  A
C1250      C1251   1.399       .  A
C1250      H1255   1.085       .  S
C1251      C1252   1.415       .  A
C1251      C1258   1.445       .  S
C1252      C1253   1.405       .  A
C1253      C1254   1.399       .  A
C1253      H1256   1.085       .  S
C1254      C1257   1.445       .  S
C1257      N1259   1.157       .  T
C1258      N1260   1.157       .  T
C1261      C1262   1.407       .  A
C1261      C1266   1.416       .  A
C1262      C1263   1.398       .  A
C1262      H1267   1.085       .  S
C1263      C1264   1.416       .  A
C1263      C1270   1.446       .  S
C1264      C1265   1.405       .  A
C1265      C1266   1.396       .  A
C1265      H1268   1.085       .  S
C1266      C1269   1.445       .  S
C1269      N1271   1.158       .  T
C1270      N1272   1.158       .  T
C1273      C1274   1.406       .  A
C1273      C1278   1.413       .  A
C1274      C1275   1.395       .  A
C1274      H1279   1.085       .  S
C1275      C1276   1.414       .  A
C1275      C1282   1.445       .  S
C1276      C1277   1.407       .  A
C1277      C1278   1.399       .  A
C1277      H1280   1.085       .  S
C1278      C1281   1.445       .  S
C1281      N1283   1.157       .  T
C1282      N1284   1.158       .  T
C1285      C1286   1.407       .  A
C1285      C1290   1.414       .  A
C1286      C1287   1.397       .  A
C1286      H1291   1.085       .  S
C1287      C1288   1.412       .  A
C1287      C1294   1.445       .  S
C1288      C1289   1.407       .  A
C1289      C1290   1.398       .  A
C1289      H1292   1.085       .  S
C1290      C1293   1.445       .  S
C1293      N1295   1.158       .  T
C1294      N1296   1.157       .  T
C1297      C1298   1.403       .  A
C1297      C1302   1.410       .  A
C1298      C1299   1.400       .  A
C1298      H1303   1.085       .  S
C1299      C1300   1.417       .  A
C1299      C1306   1.444       .  S
C1300      C1301   1.409       .  A
C1301      C1302   1.400       .  A
C1301      H1304   1.084       .  S
C1302      C1305   1.445       .  S
C1305      N1307   1.157       .  T
C1306      N1308   1.157       .  T
C1309      C1314   1.412       .  A
C1310      C1311   1.399       .  A
C1310      H1315   1.085       .  S
C1311      C1318   1.444       .  S
C1312      C1313   1.408       .  A
C1313      C1314   1.403       .  A
C1313      H1316   1.084       .  S
C1314      C1317   1.445       .  S
C1317      N1319   1.157       .  T
C1318      N1320   1.157       .  T
C1321      C1322   1.405       .  A
C1321      C1326   1.415       .  A
C1322      C1323   1.395       .  A
C1322      H1327   1.085       .  S
C1323      C1324   1.415       .  A
C1323      C1330   1.445       .  S
C1324      C1325   1.406       .  A
C1325      C1326   1.400       .  A
C1325      H1328   1.085       .  S
C1326      C1329   1.444       .  S
C1329      N1331   1.157       .  T
C1330      N1332   1.157       .  T
C1333      C1334   1.406       .  A
C1333      C1338   1.415       .  A
C1334      C1335   1.396       .  A
C1334      H1339   1.085       .  S
C1335      C1336   1.413       .  A
C1335      C1342   1.445       .  S
C1336      C1337   1.405       .  A
C1337      C1338   1.398       .  A
C1337      H1340   1.085       .  S
C1338      C1341   1.445       .  S
C1341      N1343   1.158       .  T
C1342      N1344   1.157       .  T
C1345      C1346   1.402   1_655  A
C1345      C3174   1.412       .  A
C1346      C1347   1.399       .  A
C1346      H1351   1.085       .  S
C1347      C1348   1.416       .  A
C1347      C1354   1.444       .  S
C1348      C3173   1.405   1_455  A
C1349      C3172   1.402       .  A
C1349      C1350   1.398       .  A
C1349      H1352   1.085       .  S
C1350      C3169   1.416       .  A
C1350      C1353   1.445       .  S
C1353      N1355   1.157       .  T
C1354      N1356   1.157       .  T
C1357      C1362   1.416       .  A
C1358      C1359   1.396       .  A
C1358      H1363   1.085       .  S
C1359      C1360   1.415   1_565  A
C1359      C1366   1.445       .  S
C1361      C1362   1.399       .  A
C1361      H1364   1.085       .  S
C1362      C1365   1.445       .  S
C1365      N1367   1.157       .  T
C1366      N1368   1.158       .  T
C1369      C1374   1.413       .  A
C1370      C1371   1.398       .  A
C1370      H1375   1.085       .  S
C1371      C1372   1.414       .  A
C1371      C1378   1.444       .  S
C1373      C1374   1.399       .  A
C1373      H1376   1.085       .  S
C1374      C1377   1.445       .  S
C1377      N1379   1.157       .  T
C1378      N1380   1.157       .  T
C1381      C3210   1.418   1_655  A
C1382      C1383   1.398       .  A
C1382      H1387   1.085       .  S
C1383      C1390   1.445       .  S
C1384      C3209   1.402       .  A
C1385      C3208   1.403       .  A
C1385      C1386   1.400       .  A
C1385      H1388   1.085       .  S
C1386      C3205   1.416       .  A
C1386      C1389   1.444       .  S
C1389      N1391   1.157       .  T
C1390      N1392   1.157       .  T
C1393      C1394   1.406       .  A
C1393      C1398   1.414       .  A
C1394      C1395   1.403       .  A
C1394      H1399   1.085       .  S
C1395      C1396   1.414       .  A
C1395      C1402   1.444       .  S
C1396      C1397   1.404       .  A
C1397      C1398   1.398       .  A
C1397      H1400   1.085       .  S
C1398      C1401   1.445       .  S
C1401      N1403   1.157       .  T
C1402      N1404   1.157       .  T
C1405      C1410   1.415       .  A
C1406      C1407   1.401       .  A
C1406      H1411   1.085       .  S
C1407      C1414   1.445       .  S
C1408      C1409   1.405       .  A
C1409      C1410   1.403       .  A
C1409      H1412   1.085       .  S
C1410      C1413   1.444       .  S
C1413      N1415   1.157       .  T
C1414      N1416   1.158       .  T
C1417      C1418   1.402       .  A
C1417      C1422   1.413       .  A
C1418      C1419   1.394       .  A
C1418      H1423   1.085       .  S
C1419      C1420   1.414       .  A
C1419      C1426   1.446       .  S
C1420      C1421   1.404       .  A
C1421      C1422   1.400       .  A
C1421      H1424   1.085       .  S
C1422      C1425   1.444       .  S
C1425      N1427   1.157       .  T
C1426      N1428   1.157       .  T
C1429      C1430   1.407       .  A
C1429      C1434   1.415       .  A
C1430      C1431   1.396       .  A
C1430      H1435   1.085       .  S
C1431      C1432   1.415       .  A
C1431      C1438   1.445       .  S
C1432      C1433   1.407       .  A
C1433      C1434   1.400       .  A
C1433      H1436   1.085       .  S
C1434      C1437   1.445       .  S
C1437      N1439   1.158       .  T
C1438      N1440   1.158       .  T
C1441      C1442   1.407       .  A
C1441      C3270   1.417       .  A
C1442      C1443   1.400   1_455  A
C1442      H1447   1.084   1_455  S
C1443      C1444   1.417   1_655  A
C1443      C1450   1.445       .  S
C1444      C3269   1.407       .  A
C1445      C3268   1.405       .  A
C1445      C1446   1.395       .  A
C1445      H1448   1.085       .  S
C1446      C3265   1.416       .  A
C1446      C1449   1.445       .  S
C1449      N1451   1.157       .  T
C1450      N1452   1.158       .  T
C1453      C1454   1.403       .  A
C1453      C1458   1.412       .  A
C1454      C1455   1.396       .  A
C1454      H1459   1.085       .  S
C1455      C1456   1.412       .  A
C1455      C1462   1.445       .  S
C1456      C1457   1.404       .  A
C1457      C1458   1.399       .  A
C1457      H1460   1.085       .  S
C1458      C1461   1.445       .  S
C1461      N1463   1.157       .  T
C1462      N1464   1.157       .  T
C1465      C1466   1.405       .  A
C1465      C1470   1.415       .  A
C1466      C1467   1.399       .  A
C1466      H1471   1.085       .  S
C1467      C1468   1.415       .  A
C1467      C1474   1.445       .  S
C1468      C1469   1.406       .  A
C1469      C1470   1.399       .  A
C1469      H1472   1.085       .  S
C1470      C1473   1.445       .  S
C1473      N1475   1.157       .  T
C1474      N1476   1.157       .  T
C1477      C3302   1.404   1_545  A
C1478      C3301   1.403       .  A
C1478      C1479   1.398       .  A
C1478      H1483   1.085       .  S
C1479      C3304   1.414       .  A
C1479      C1486   1.445       .  S
C1480      C3303   1.414   1_545  A
C1481      C1482   1.401       .  A
C1481      H1484   1.085       .  S
C1482      C1485   1.444       .  S
C1485      N1487   1.157       .  T
C1486      N1488   1.157       .  T
C1489      C1490   1.405       .  A
C1489      C1494   1.410       .  A
C1490      C1491   1.402   1_556  A
C1490      H1495   1.085       .  S
C1491      C1492   1.415       .  A
C1491      C1498   1.444       .  S
C1492      C1493   1.409       .  A
C1493      C1494   1.400   1_554  A
C1493      H1496   1.085       .  S
C1494      C1497   1.445       .  S
C1497      N1499   1.157       .  T
C1498      N1500   1.157       .  T
C1501      C1502   1.406       .  A
C1501      C1506   1.413       .  A
C1502      C1503   1.399       .  A
C1502      H1507   1.085       .  S
C1503      C1504   1.412       .  A
C1503      C1510   1.445       .  S
C1504      C1505   1.405       .  A
C1505      C1506   1.397       .  A
C1505      H1508   1.085       .  S
C1506      C1509   1.445       .  S
C1509      N1511   1.157       .  T
C1510      N1512   1.157       .  T
C1513      C1514   1.403       .  A
C1513      C1518   1.414       .  A
C1514      C1515   1.397       .  A
C1514      H1519   1.085       .  S
C1515      C1516   1.416       .  A
C1515      C1522   1.445       .  S
C1516      C1517   1.405       .  A
C1517      C1518   1.401       .  A
C1517      H1520   1.085       .  S
C1518      C1521   1.444       .  S
C1521      N1523   1.157       .  T
C1522      N1524   1.157       .  T
C1525      C1526   1.404   1_545  A
C1526      C1527   1.400   1_566  A
C1526      H1531   1.085       .  S
C1527      C1528   1.415       .  A
C1527      C1534   1.445   1_545  S
C1529      C1530   1.399   1_554  A
C1529      H1532   1.084       .  S
C1530      C1533   1.445       .  S
C1533      N1535   1.157       .  T
C1534      N1536   1.157       .  T
C1537      C3362   1.405   1_455  A
C1537      C1542   1.414       .  A
C1538      C3361   1.405       .  A
C1538      C1539   1.398   1_556  A
C1538      H1543   1.085       .  S
C1539      C3364   1.412       .  A
C1539      C1546   1.445       .  S
C1540      C3363   1.414   1_455  A
C1540      C1541   1.405       .  A
C1541      C1542   1.400   1_554  A
C1541      H1544   1.085       .  S
C1542      C1545   1.445       .  S
C1545      N1547   1.157       .  T
C1546      N1548   1.157       .  T
C1549      C2859   1.484       .  S
C1549      C3374   1.406   1_655  A
C1549      C1554   1.415       .  A
C1550      C3373   1.406       .  A
C1550      C1551   1.396       .  A
C1550      H1555   1.085       .  S
C1551      C3376   1.416       .  A
C1551      C1558   1.445       .  S
C1552      C3375   1.413   1_655  A
C1552      C1553   1.406       .  A
C1553      C1554   1.400       .  A
C1553      H1556   1.085       .  S
C1554      C1557   1.445       .  S
C1557      N1559   1.158       .  T
C1558      N1560   1.158       .  T
C1561      C2860   1.488       .  S
C1561      C1562   1.408   1_655  A
C1561      C3390   1.415       .  A
C1562      C1563   1.399       .  A
C1562      H1567   1.085       .  S
C1563      C1564   1.415   1_455  A
C1563      C1570   1.445       .  S
C1564      C3389   1.406       .  A
C1565      C3388   1.403       .  A
C1565      C1566   1.398       .  A
C1565      H1568   1.085       .  S
C1566      C3385   1.413       .  A
C1566      C1569   1.441       .  S
C1569      N1571   1.156       .  T
C1570      N1572   1.158       .  T
C1573      C2861   1.492       .  S
C1573      C1574   1.409   1_665  A
C1573      C2490   1.419       .  A
C1574      C1575   1.400   1_554  A
C1574      H1579   1.084       .  S
C1575      C1576   1.410   1_455  A
C1575      C1582   1.445       .  S
C1576      C2489   1.402   1_545  A
C1577      C2488   1.405       .  A
C1577      C1578   1.398   1_556  A
C1577      H1580   1.085       .  S
C1578      C2485   1.413       .  A
C1578      C1581   1.445       .  S
C1581      N1583   1.157       .  T
C1582      N1584   1.157       .  T
C1585      C1586   1.404       .  A
C1585      C1590   1.414       .  A
C1586      C1587   1.397       .  A
C1586      H1591   1.085       .  S
C1587      C1588   1.413       .  A
C1587      C1594   1.445       .  S
C1588      C1589   1.405       .  A
C1589      C1590   1.402       .  A
C1589      H1592   1.085       .  S
C1590      C1593   1.444       .  S
C1593      N1595   1.157       .  T
C1594      N1596   1.157       .  T
C1597      C1602   1.415       .  A
C1598      C1599   1.399       .  A
C1598      H1603   1.085       .  S
C1599      C1600   1.414   1_565  A
C1599      C1606   1.444       .  S
C1601      C1602   1.400       .  A
C1601      H1604   1.085       .  S
C1602      C1605   1.445       .  S
C1605      N1607   1.157       .  T
C1606      N1608   1.157       .  T
C1609      C3434   1.406       .  A
C1609      C1614   1.416       .  A
C1610      C3433   1.405       .  A
C1610      C1611   1.400       .  A
C1610      H1615   1.085       .  S
C1611      C3436   1.415       .  A
C1611      C1618   1.445       .  S
C1612      C3435   1.416       .  A
C1612      C1613   1.405       .  A
C1613      C1614   1.396       .  A
C1613      H1616   1.085       .  S
C1614      C1617   1.445   1_655  S
C1617      N1619   1.158       .  T
C1618      N1620   1.157       .  T
C1621      C1622   1.405       .  A
C1621      C1626   1.415       .  A
C1622      C1623   1.399       .  A
C1622      H1627   1.085       .  S
C1623      C1624   1.414       .  A
C1623      C1630   1.445       .  S
C1624      C1625   1.405       .  A
C1625      C1626   1.396       .  A
C1625      H1628   1.085       .  S
C1626      C1629   1.446       .  S
C1629      N1631   1.158       .  T
C1630      N1632   1.157       .  T
C1633      C1634   1.407       .  A
C1633      C1638   1.413       .  A
C1634      C1635   1.399       .  A
C1634      H1639   1.085       .  S
C1635      C1636   1.414       .  A
C1635      C1642   1.445       .  S
C1636      C1637   1.405       .  A
C1637      C1638   1.395       .  A
C1637      H1640   1.085       .  S
C1638      C1641   1.445       .  S
C1641      N1643   1.157       .  T
C1642      N1644   1.158       .  T
C1645      C2558   1.408       .  A
C1645      C1650   1.416       .  A
C1646      C2557   1.404   1_565  A
C1646      C1647   1.399       .  A
C1646      H1651   1.085       .  S
C1647      C2560   1.413   1_565  A
C1647      C1654   1.445       .  S
C1648      C2559   1.416       .  A
C1648      C1649   1.407       .  A
C1649      C1650   1.400       .  A
C1649      H1652   1.085       .  S
C1650      C1653   1.444       .  S
C1653      N1655   1.157       .  T
C1654      N1656   1.157       .  T
C1657      C1658   1.405       .  A
C1658      C1659   1.397       .  A
C1658      H1663   1.085       .  S
C1659      C1660   1.415       .  A
C1659      C1666   1.445       .  S
C1661      C1662   1.395       .  A
C1661      H1664   1.085       .  S
C1662      C1665   1.445       .  S
C1665      N1667   1.157       .  T
C1666      N1668   1.157       .  T
C1669      C1670   1.405       .  A
C1670      C1671   1.397       .  A
C1670      H1675   1.085       .  S
C1671      C1672   1.415       .  A
C1671      C1678   1.445       .  S
C1673      C1674   1.398       .  A
C1673      H1676   1.085       .  S
C1674      C1677   1.445       .  S
C1677      N1679   1.157       .  T
C1678      N1680   1.157       .  T
C1681      C1682   1.405       .  A
C1681      C1686   1.414       .  A
C1682      C1683   1.398       .  A
C1682      H1687   1.085       .  S
C1683      C1684   1.415       .  A
C1683      C1690   1.445       .  S
C1684      C1685   1.406       .  A
C1685      C1686   1.404       .  A
C1685      H1688   1.085       .  S
C1686      C1689   1.444       .  S
C1689      N1691   1.157       .  T
C1690      N1692   1.157       .  T
C1693      C1694   1.406       .  A
C1693      C1698   1.418       .  A
C1694      C1695   1.401       .  A
C1694      H1699   1.084       .  S
C1695      C1696   1.413       .  A
C1695      C1702   1.445       .  S
C1696      C1697   1.402       .  A
C1697      C1698   1.400       .  A
C1697      H1700   1.085       .  S
C1698      C1701   1.445       .  S
C1701      N1703   1.157       .  T
C1702      N1704   1.157       .  T
C1705      C1706   1.403       .  A
C1705      C1710   1.416       .  A
C1706      C1707   1.397       .  A
C1706      H1711   1.085       .  S
C1707      C1708   1.414       .  A
C1707      C1714   1.445       .  S
C1708      C1709   1.404       .  A
C1709      C1710   1.400       .  A
C1709      H1712   1.085       .  S
C1710      C1713   1.445       .  S
C1713      N1715   1.157       .  T
C1714      N1716   1.157       .  T
C1717      C1718   1.407       .  A
C1717      C1722   1.416       .  A
C1718      C1719   1.398       .  A
C1718      H1723   1.085       .  S
C1719      C1720   1.417       .  A
C1719      C1726   1.445       .  S
C1720      C1721   1.407       .  A
C1721      C1722   1.399       .  A
C1721      H1724   1.085       .  S
C1722      C1725   1.445       .  S
C1725      N1727   1.157       .  T
C1726      N1728   1.157       .  T
C1729      C1734   1.417       .  A
C1730      C1731   1.398       .  A
C1730      H1735   1.085       .  S
C1731      C1738   1.445       .  S
C1732      C1733   1.407       .  A
C1733      C1734   1.402       .  A
C1733      H1736   1.085       .  S
C1734      C1737   1.445       .  S
C1737      N1739   1.158       .  T
C1738      N1740   1.157       .  T
C1741      C1746   1.407       .  A
C1742      C1743   1.399       .  A
C1742      H1747   1.085       .  S
C1743      C1744   1.412   1_565  A
C1743      C1750   1.445       .  S
C1745      C1746   1.399       .  A
C1745      H1748   1.084       .  S
C1746      C1749   1.445       .  S
C1749      N1751   1.157       .  T
C1750      N1752   1.157       .  T
C1753      C3578   1.407       .  A
C1753      C1758   1.416   1_655  A
C1754      C3577   1.406       .  A
C1754      C1755   1.400       .  A
C1754      H1759   1.085       .  S
C1755      C3580   1.417       .  A
C1755      C1762   1.445       .  S
C1756      C3579   1.416       .  A
C1756      C1757   1.404   1_655  A
C1757      C1758   1.396       .  A
C1757      H1760   1.085       .  S
C1758      C1761   1.445       .  S
C1761      N1763   1.158       .  T
C1762      N1764   1.157       .  T
C1765      C3590   1.402       .  A
C1765      C1770   1.411   1_655  A
C1766      C3589   1.402       .  A
C1766      C1767   1.400       .  A
C1766      H1771   1.085       .  S
C1767      C3592   1.417       .  A
C1767      C1774   1.444       .  S
C1768      C3591   1.414       .  A
C1768      C1769   1.406   1_655  A
C1769      C1770   1.397       .  A
C1769      H1772   1.084       .  S
C1770      C1773   1.445       .  S
C1773      N1775   1.157       .  T
C1774      N1776   1.157       .  T
C1777      C3602   1.405       .  A
C1777      C1782   1.415   1_655  A
C1778      C3601   1.403       .  A
C1778      C1779   1.398       .  A
C1778      H1783   1.085       .  S
C1779      C3604   1.414       .  A
C1779      C1786   1.445       .  S
C1780      C3603   1.416       .  A
C1780      C1781   1.404   1_655  A
C1781      C1782   1.398       .  A
C1781      H1784   1.085       .  S
C1782      C1785   1.445       .  S
C1785      N1787   1.157       .  T
C1786      N1788   1.157       .  T
C1789      C3614   1.405       .  A
C1789      C1794   1.417   1_655  A
C1790      C3613   1.405       .  A
C1790      C1791   1.396       .  A
C1790      H1795   1.090       .  S
C1791      C3616   1.415       .  A
C1791      C1798   1.444       .  S
C1792      C3615   1.417       .  A
C1792      C1793   1.405   1_655  A
C1793      C1794   1.396       .  A
C1793      H1796   1.090       .  S
C1794      C1797   1.445       .  S
C1797      N1799   1.158       .  T
C1798      N1800   1.157       .  T
C1801      C3630   1.414       .  A
C1802      C1803   1.402       .  A
C1802      H1807   1.085       .  S
C1803      C1810   1.444       .  S
C1804      C3629   1.403       .  A
C1805      C3628   1.404   1_455  A
C1805      C1806   1.399       .  A
C1805      H1808   1.085       .  S
C1806      C3625   1.414   1_455  A
C1806      C1809   1.444       .  S
C1809      N1811   1.157       .  T
C1810      N1812   1.157       .  T
C1813      C3638   1.403   1_455  A
C1814      C3637   1.404       .  A
C1814      C1815   1.399       .  A
C1814      H1819   1.085       .  S
C1815      C3640   1.414       .  A
C1815      C1822   1.445       .  S
C1816      C3639   1.416       .  A
C1817      C1818   1.400       .  A
C1817      H1820   1.084       .  S
C1818      C1821   1.445       .  S
C1821      N1823   1.157       .  T
C1822      N1824   1.157       .  T
O1825     Ni1833   1.914       .  S
O1826     Ni2745   1.911   1_545  S
O1827     Ni1833   1.918       .  S
O1827      C1837   1.281       .  A
O1828     Ni1833   1.916       .  S
O1829     Ni1834   1.919       .  S
O1829      C1838   1.282   1_545  A
O1830     Ni1834   1.918       .  S
O1831     Ni1834   1.914       .  S
O1831      C1836   1.280       .  A
O1832     Ni2746   1.912       .  S
O1832      C1835   1.280       .  A
Ni1833     O2738   1.911       .  S
Ni1834     O2744   1.912   1_545  S
C1835      C2689   1.484       .  S
C1836      C2701   1.485       .  S
C1837      C2716   1.494       .  S
C1838      C2728   1.490   1_565  S
O1839     Ni1847   1.912       .  S
O1839      C1849   1.281       .  A
O1840     Ni1847   1.910       .  S
O1840      C1850   1.281       .  A
O1841     Ni1847   1.915       .  S
O1841      C1851   1.282       .  A
O1842     Ni1847   1.913       .  S
O1842      C1852   1.280       .  A
O1843     Ni1848   1.916       .  S
O1844     Ni1848   1.914       .  S
O1845     Ni1848   1.907       .  S
O1846     Ni1848   1.904       .  S
C1849      C2704   1.484       .  S
C1850      C2692   1.486       .  S
C1851      C2680   1.487       .  S
C1852      C2665   1.485       .  S
O1853     Ni2773   1.915   1_545  S
O1853      C1863   1.282       .  A
O1854     Ni1861   1.915       .  S
O1854      C1864   1.280       .  A
O1855     Ni1861   1.915       .  S
O1855      C1865   1.281       .  A
O1856     Ni1861   1.913       .  S
O1856      C1866   1.280       .  A
O1857     Ni1862   1.913       .  S
O1857      C2778   1.281   1_545  A
O1858     Ni1862   1.915       .  S
O1858      C2777   1.282   1_545  A
O1859     Ni2774   1.911       .  S
O1859      C1864   1.281       .  A
O1860     Ni1862   1.908       .  S
O1860      C1863   1.279       .  A
Ni1861     O2765   1.913       .  S
Ni1861    Ni2774   2.386       .  S
Ni1862     O2771   1.910   1_545  S
Ni1862    Ni2773   2.384   1_545  S
C1863      C2632   1.486       .  S
C1864      C2617   1.488       .  S
C1865      O2770   1.280       .  A
C1865      C2656   1.480       .  S
C1866      O2769   1.281       .  A
C1866      C2644   1.487       .  S
O1867     Ni1875   1.909       .  S
O1867      C1877   1.281       .  A
O1868     Ni1875   1.908       .  S
O1868      C1878   1.279       .  A
O1869     Ni1875   1.913       .  S
O1869      C1879   1.281       .  A
O1870     Ni1875   1.915       .  S
O1870      C1880   1.282       .  A
O1871     Ni1876   1.907       .  S
O1871      C1880   1.279       .  A
O1872     Ni1876   1.907       .  S
O1872      C1879   1.279       .  A
O1873     Ni1876   1.916       .  S
O1873      C1878   1.282       .  A
O1874     Ni1876   1.915       .  S
O1874      C1877   1.281       .  A
Ni1875    Ni1876   2.384       .  S
C1877      C2629   1.487       .  S
C1878      C2620   1.487       .  S
C1879      C2605   1.477       .  S
C1880      C2596   1.487       .  S
O1881     Ni1889   1.912       .  S
O1881      C2803   1.280       .  A
O1882      C2804   1.281       .  A
O1883     Ni1889   1.908       .  S
O1884     Ni1889   1.907       .  S
O1885     Ni1890   1.923       .  S
O1885      C1894   1.282       .  A
O1886     Ni1890   1.924       .  S
O1886      C1893   1.283       .  A
O1887     Ni1890   1.909       .  S
O1887      C1892   1.279       .  A
O1888      C1891   1.279       .  A
C1891      O2793   1.281   1_545  A
C1891      C2569   1.474       .  S
C1892      O2794   1.282   1_545  A
C1892      C2581   1.485       .  S
C1893      C2557   1.481       .  S
C1894      C2725   1.476       .  S
O1895      C1905   1.281       .  A
O1896     Ni1903   1.910       .  S
O1896      C1906   1.282       .  A
O1897     Ni1903   1.911       .  S
O1897      C1907   1.280       .  A
O1898     Ni1903   1.907       .  S
O1898      C1908   1.280       .  A
O1899     Ni1904   1.911       .  S
O1900     Ni1904   1.914       .  S
O1901      C1906   1.279       .  A
O1902     Ni1904   1.909       .  S
O1902      C1905   1.280       .  A
C1905      C2533   1.483       .  S
C1906      C2548   1.485       .  S
C1907      C2677   1.485       .  S
C1908      C2524   1.490       .  S
O1909     Ni1917   1.906       .  S
O1909      C2831   1.279       .  A
O1910     Ni1917   1.909       .  S
O1910      C2832   1.281       .  A
O1911     Ni1917   1.903       .  S
O1911      C2833   1.280       .  A
O1912     Ni1917   1.904       .  S
O1912      C2834   1.279       .  A
O1913     Ni1918   1.923       .  S
O1913      C1922   1.283       .  A
O1914     Ni1918   1.922       .  S
O1914      C1921   1.282       .  A
O1915     Ni1918   1.907       .  S
O1915      C1920   1.279       .  A
O1916     Ni1918   1.911       .  S
O1916      C1919   1.281       .  A
Ni1917    Ni2830   2.386       .  S
Ni1918    Ni2829   2.385   1_545  S
C1919      O2821   1.280   1_545  A
C1919      C2584   1.485       .  S
C1920      O2822   1.281   1_545  A
C1920      C2572   1.474       .  S
C1921      O2823   1.281   1_545  A
C1921      C2509   1.493       .  S
C1922      O2824   1.280   1_545  A
C1922      C2653   1.480       .  S
O1923     Ni1931   1.915       .  S
O1923      C1933   1.282       .  A
O1924     Ni1931   1.915       .  S
O1924      C1934   1.282       .  A
O1925     Ni1931   1.913       .  S
O1925      C1935   1.280       .  A
O1926     Ni1931   1.913       .  S
O1926      C1936   1.281       .  A
O1927     Ni1932   1.908       .  S
O1927      C1936   1.279       .  A
O1928     Ni1932   1.906       .  S
O1928      C1935   1.280       .  A
O1929     Ni1932   1.908       .  S
O1929      C1934   1.279       .  A
O1930     Ni1932   1.907       .  S
O1930      C1933   1.279       .  A
Ni1931    Ni1932   2.385       .  S
C1933      C2545   1.486       .  S
C1934      C2536   1.483       .  S
C1935      C2497   1.482       .  S
C1936      C2608   1.476       .  S
O1937     Ni1945   1.919       .  S
O1937      C1947   1.281       .  A
O1938     Ni2857   1.913   1_545  S
O1938      C1948   1.281       .  A
O1939     Ni1945   1.917       .  S
O1939      C1949   1.281       .  A
O1940     Ni1945   1.922       .  S
O1940      C1950   1.283       .  A
O1941     Ni1946   1.911       .  S
O1942     Ni1946   1.910       .  S
O1943     Ni1946   1.910       .  S
O1944     Ni2858   1.909       .  S
Ni1945     O2850   1.918       .  S
Ni1946     O2856   1.906   1_545  S
C1950      C2713   1.493       .  S
O1951     Ni1959   1.915       .  S
O1951      C1961   1.281       .  A
O1952     Ni1959   1.914       .  S
O1952      C1962   1.281       .  A
O1953     Ni1959   1.910       .  S
O1953      C1963   1.280       .  A
O1954     Ni1959   1.910       .  S
O1954      C1964   1.281       .  A
O1955     Ni1960   1.915       .  S
O1956     Ni1960   1.916       .  S
O1957     Ni1960   1.912       .  S
O1958     Ni1960   1.911       .  S
C1961      C2464   1.480       .  S
C1962      C2476   1.490       .  S
C1963      C2452   1.475       .  S
C1964      C2668   1.484       .  S
O1965     Ni2885   1.912   1_545  S
O1965      C1975   1.280       .  A
O1966     Ni1973   1.913       .  S
O1966      C1976   1.281       .  A
O1967     Ni1973   1.909       .  S
O1967      C1977   1.281       .  A
O1968     Ni1973   1.911       .  S
O1968      C1978   1.281       .  A
O1969     Ni1974   1.917       .  S
O1969      C2890   1.281       .  A
O1970     Ni1974   1.916       .  S
O1970      C2889   1.282       .  A
O1971     Ni2886   1.908       .  S
O1971      C1976   1.279       .  A
O1972     Ni1974   1.909       .  S
O1972      C1975   1.281       .  A
Ni1973     O2877   1.913       .  S
Ni1973    Ni2886   2.385       .  S
Ni1974     O2883   1.907   1_545  S
Ni1974    Ni2885   2.387   1_545  S
C1975      C2425   1.483       .  S
C1976      C2413   1.482       .  S
C1977      O2882   1.280       .  A
C1977      C2641   1.487       .  S
C1978      O2881   1.281       .  A
C1978      C2440   1.479       .  S
O1979     Ni1987   1.904       .  S
O1979      C1989   1.280       .  A
O1980     Ni1987   1.905       .  S
O1980      C1990   1.279       .  A
O1981     Ni1987   1.918       .  S
O1981      C1991   1.282       .  A
O1982     Ni1987   1.917       .  S
O1982      C1992   1.281       .  A
O1983     Ni1988   1.903       .  S
O1983      C1992   1.279       .  A
O1984     Ni1988   1.902       .  S
O1984      C1991   1.278       .  A
O1985     Ni1988   1.922       .  S
O1985      C1990   1.282       .  A
O1986     Ni1988   1.921       .  S
O1986      C1989   1.282       .  A
Ni1987    Ni1988   2.385       .  S
C1989      C2593   1.487       .  S
C1990      C2404   1.481       .  S
C1991      C2428   1.481       .  S
C1992      C2416   1.482       .  S
O1993     Ni2913   1.909       .  S
O1993      C2003   1.280       .  A
O1994      C2004   1.282       .  A
O1995     Ni2001   1.917       .  S
O1996     Ni2001   1.919       .  S
O1997     Ni2002   1.917       .  S
O1997      C2006   1.281       .  A
O1998     Ni2002   1.917       .  S
O1998      C2005   1.283       .  A
O1999     Ni2914   1.906   1_545  S
O1999      C2004   1.280       .  A
O2000      C2003   1.281       .  A
Ni2001     O2905   1.912   1_545  S
Ni2002     O2911   1.908       .  S
C2003      C2368   1.485       .  S
C2004      C2377   1.483       .  S
C2005      C2389   1.489       .  S
C2006      C2488   1.482       .  S
O2007     Ni2015   1.910       .  S
O2007      C2017   1.280       .  A
O2008      C2018   1.281       .  A
O2009     Ni2015   1.915       .  S
O2009      C2019   1.281       .  A
O2010     Ni2015   1.914       .  S
O2010      C2020   1.281       .  A
O2011     Ni2016   1.914       .  S
O2012     Ni2016   1.913       .  S
O2013     Ni2016   1.910       .  S
O2013      C2018   1.280       .  A
O2014      C2017   1.281       .  A
C2017      C2341   1.479       .  S
C2018      C2329   1.486       .  S
C2019      C2353   1.479       .  S
C2020      C2449   1.485       .  S
O2021     Ni2029   1.913       .  S
O2021      C2031   1.281       .  A
O2022     Ni2941   1.920   1_545  S
O2022      C2032   1.281       .  A
O2023     Ni2029   1.919       .  S
O2023      C2033   1.283       .  A
O2024     Ni2029   1.918       .  S
O2024      C2034   1.281       .  A
O2025     Ni2030   1.905       .  S
O2025      C2946   1.279   1_545  A
O2026     Ni2030   1.906       .  S
O2026      C2945   1.279       .  A
O2027     Ni2030   1.905       .  S
O2027      C2032   1.280       .  A
O2028     Ni2942   1.910       .  S
O2028      C2031   1.280       .  A
Ni2029     O2934   1.913       .  S
Ni2029    Ni2942   2.385       .  S
Ni2030     O2940   1.905   1_545  S
Ni2030    Ni2941   2.385   1_545  S
C2031      C2344   1.479       .  S
C2032      C2332   1.486       .  S
C2033      O2938   1.278       .  A
C2033      C2437   1.480       .  S
C2034      O2937   1.280       .  A
C2034      C2317   1.488       .  S
O2035     Ni2043   1.905       .  S
O2035      C2045   1.280       .  A
O2036     Ni2043   1.908       .  S
O2036      C2046   1.280       .  A
O2037     Ni2043   1.919       .  S
O2037      C2047   1.282       .  A
O2038     Ni2043   1.921       .  S
O2038      C2048   1.283       .  A
O2039     Ni2044   1.906       .  S
O2039      C2048   1.279       .  A
O2040     Ni2044   1.910       .  S
O2040      C2047   1.280       .  A
O2041     Ni2044   1.916       .  S
O2041      C2046   1.282       .  A
O2042     Ni2044   1.914       .  S
O2042      C2045   1.281       .  A
Ni2043    Ni2044   2.384       .  S
C2045      C2365   1.485       .  S
C2046      C2380   1.482       .  S
C2047      C2401   1.482       .  S
C2048      C2305   1.490       .  S
O2049     Ni2057   1.912       .  S
O2050     Ni2057   1.913       .  S
O2051      C2973   1.282       .  A
O2052     Ni2057   1.910       .  S
O2052      C2974   1.281       .  A
O2053      C2062   1.280       .  A
O2054     Ni2058   1.914       .  S
O2054      C2061   1.281       .  A
O2055     Ni2058   1.915       .  S
O2055      C2060   1.280       .  A
O2056     Ni2058   1.915       .  S
O2056      C2059   1.281       .  A
C2059      C2293   1.488       .  S
C2060      C2560   1.481       .  S
C2061      O2963   1.280   1_545  A
C2061      C2281   1.487       .  S
C2062      O2964   1.280   1_545  A
C2062      C2269   1.479       .  S
O2063      C2073   1.280       .  A
O2064     Ni2071   1.912       .  S
O2064      C2074   1.281       .  A
O2065     Ni2071   1.914       .  S
O2065      C2075   1.281       .  A
O2066     Ni2071   1.914       .  S
O2066      C2076   1.281       .  A
O2067     Ni2072   1.913       .  S
O2068     Ni2072   1.908       .  S
O2069      C2074   1.280       .  A
O2070     Ni2072   1.910       .  S
O2070      C2073   1.280       .  A
C2073      C2236   1.473       .  S
C2074      C2245   1.483       .  S
C2075      C2521   1.491       .  S
C2076      C2257   1.481       .  S
O2077     Ni2085   1.915       .  S
O2077      C2087   1.280       .  A
O2078     Ni2085   1.911       .  S
O2078      C2088   1.280       .  A
O2079     Ni2085   1.909       .  S
O2079      C2089   1.279       .  A
O2080     Ni2085   1.909       .  S
O2080      C2090   1.280       .  A
O2081     Ni2086   1.918       .  S
O2081      C3002   1.282       .  A
O2082     Ni2086   1.918       .  S
O2082      C3001   1.282       .  A
O2083     Ni2086   1.908       .  S
O2083      C3000   1.281       .  A
O2084     Ni2086   1.909       .  S
O2084      C2999   1.281       .  A
Ni2085    Ni2998   2.384       .  S
Ni2086    Ni2997   2.384   1_545  S
C2087      O2996   1.282       .  A
C2087      C2284   1.489       .  S
C2088      O2995   1.281       .  A
C2088      C2272   1.482       .  S
C2089      O2994   1.282       .  A
C2089      C2221   1.475       .  S
C2090      O2993   1.282       .  A
C2090      C2512   1.490       .  S
O2091     Ni2099   1.918       .  S
O2091      C2101   1.282       .  A
O2092     Ni2099   1.917       .  S
O2092      C2102   1.282       .  A
O2093     Ni2099   1.916       .  S
O2093      C2103   1.281       .  A
O2094     Ni2099   1.911       .  S
O2094      C2104   1.281       .  A
O2095     Ni2100   1.908       .  S
O2095      C2104   1.280       .  A
O2096     Ni2100   1.909       .  S
O2096      C2103   1.281       .  A
O2097     Ni2100   1.906       .  S
O2097      C2102   1.279       .  A
O2098     Ni2100   1.903       .  S
O2098      C2101   1.278       .  A
Ni2099    Ni2100   2.387       .  S
C2101      C2248   1.482       .  S
C2102      C2233   1.475       .  S
C2103      C2209   1.480       .  S
C2104      C2500   1.482       .  S
O2105     Ni3025   1.906   1_545  S
O2105      C2115   1.280       .  A
O2106      C2116   1.279       .  A
O2107     Ni2113   1.910       .  S
O2107      C2117   1.280       .  A
O2108     Ni2113   1.910       .  S
O2108      C2118   1.280       .  A
O2109     Ni2114   1.918       .  S
O2110     Ni2114   1.916       .  S
O2111     Ni3026   1.919       .  S
O2111      C2116   1.282       .  A
O2112      C2115   1.280       .  A
Ni2113     O3017   1.907       .  S
Ni2114     O3023   1.908   1_545  S
C2115      C2197   1.481       .  S
C2116      C2188   1.483       .  S
C2117      C3208   1.477       .  S
C2118      C2392   1.488       .  S
O2119      C2129   1.279       .  A
O2120     Ni2127   1.915       .  S
O2120      C2130   1.282       .  A
O2121     Ni2127   1.909       .  S
O2122     Ni2127   1.913       .  S
O2123     Ni2128   1.918       .  S
O2123      C2132   1.282       .  A
O2124     Ni2128   1.916       .  S
O2124      C2131   1.281       .  A
O2125      C2130   1.280       .  A
O2126     Ni2128   1.914       .  S
O2126      C2129   1.282       .  A
C2129      C2173   1.481       .  S
C2130      C2161   1.484       .  S
C2131      C2356   1.478       .  S
C2132      C2260   1.480       .  S
O2133     Ni3053   1.911       .  S
O2133      C2143   1.281       .  A
O2134     Ni2141   1.909       .  S
O2134      C2144   1.280       .  A
O2135     Ni2141   1.917       .  S
O2135      C3057   1.281       .  A
O2136     Ni2141   1.914       .  S
O2136      C3058   1.281   1_545  A
O2137     Ni2142   1.919       .  S
O2137      C2146   1.282       .  A
O2138     Ni2142   1.919       .  S
O2138      C2145   1.283       .  A
O2139     Ni3054   1.918   1_545  S
O2139      C2144   1.282       .  A
O2140     Ni2142   1.908       .  S
O2140      C2143   1.279       .  A
Ni2141     O3045   1.909   1_545  S
Ni2141    Ni3054   2.385   1_545  S
Ni2142     O3051   1.906       .  S
Ni2142    Ni3053   2.384       .  S
C2143      C2176   1.480       .  S
C2144      C2164   1.485       .  S
C2145      O3047   1.278       .  A
C2145      C2224   1.484       .  S
C2146      O3048   1.278       .  A
C2146      C2320   1.488       .  S
O2147     Ni2155   1.906       .  S
O2147      C2157   1.281       .  A
O2148     Ni2155   1.907       .  S
O2148      C2158   1.279       .  A
O2149     Ni2155   1.915       .  S
O2149      C2159   1.281       .  A
O2150     Ni2155   1.912       .  S
O2150      C2160   1.281       .  A
O2151     Ni2156   1.908       .  S
O2151      C2160   1.280       .  A
O2152     Ni2156   1.908       .  S
O2152      C2159   1.280       .  A
O2153     Ni2156   1.919       .  S
O2153      C2158   1.282       .  A
O2154     Ni2156   1.921       .  S
O2154      C2157   1.282       .  A
Ni2155    Ni2156   2.384       .  S
C2157      C2308   1.490       .  S
C2158      C2212   1.481       .  S
C2159      C2185   1.484       .  S
C2160      C2200   1.482       .  S
C2161      C2162   1.405       .  A
C2161      C2166   1.416       .  A
C2162      C2163   1.398       .  A
C2162      H2167   1.085       .  S
C2163      C2164   1.415       .  A
C2163      C2170   1.445       .  S
C2164      C2165   1.405       .  A
C2165      C2166   1.400       .  A
C2165      H2168   1.085       .  S
C2166      C2169   1.444       .  S
C2169      N2171   1.157       .  T
C2170      N2172   1.157       .  T
C2173      C2174   1.405       .  A
C2173      C2178   1.415       .  A
C2174      C2175   1.398       .  A
C2174      H2179   1.085       .  S
C2175      C2176   1.415       .  A
C2175      C2182   1.445       .  S
C2176      C2177   1.404       .  A
C2177      C2178   1.396       .  A
C2177      H2180   1.085       .  S
C2178      C2181   1.445       .  S
C2181      N2183   1.157       .  T
C2182      N2184   1.158       .  T
C2185      C2186   1.407       .  A
C2185      C2190   1.414       .  A
C2186      C2187   1.399       .  A
C2186      H2191   1.085       .  S
C2187      C2188   1.413       .  A
C2187      C2194   1.445       .  S
C2188      C2189   1.406       .  A
C2189      C2190   1.398       .  A
C2189      H2192   1.085       .  S
C2190      C2193   1.445       .  S
C2193      N2195   1.158       .  T
C2194      N2196   1.157       .  T
C2197      C2198   1.405       .  A
C2197      C2202   1.414       .  A
C2198      C2199   1.396       .  A
C2198      H2203   1.085       .  S
C2199      C2200   1.414       .  A
C2199      C2206   1.445       .  S
C2200      C2201   1.407       .  A
C2201      C2202   1.399       .  A
C2201      H2204   1.085       .  S
C2202      C2205   1.445       .  S
C2205      N2207   1.157       .  T
C2206      N2208   1.157       .  T
C2209      C2210   1.405       .  A
C2209      C2214   1.413       .  A
C2210      C2211   1.398       .  A
C2210      H2215   1.085       .  S
C2211      C2212   1.413       .  A
C2211      C2218   1.444       .  S
C2212      C2213   1.407       .  A
C2213      C2214   1.400       .  A
C2213      H2216   1.085       .  S
C2214      C2217   1.445       .  S
C2217      N2219   1.158       .  T
C2218      N2220   1.157       .  T
C2221      C3134   1.401       .  A
C2221      C2226   1.412       .  A
C2222      C3133   1.404       .  A
C2222      C2223   1.401       .  A
C2222      H2227   1.085       .  S
C2223      C3136   1.415       .  A
C2223      C2230   1.444       .  S
C2224      C3135   1.418       .  A
C2224      C2225   1.406       .  A
C2225      C2226   1.399       .  A
C2225      H2228   1.084       .  S
C2226      C2229   1.445       .  S
C2229      N2231   1.157       .  T
C2230      N2232   1.157       .  T
C2233      C2234   1.403       .  A
C2233      C2238   1.413       .  A
C2234      C2235   1.398       .  A
C2234      H2239   1.085       .  S
C2235      C2236   1.412       .  A
C2235      C2242   1.445       .  S
C2236      C2237   1.402       .  A
C2237      C2238   1.398       .  A
C2237      H2240   1.085       .  S
C2238      C2241   1.445       .  S
C2241      N2243   1.157       .  T
C2242      N2244   1.157       .  T
C2245      C2246   1.404       .  A
C2245      C2250   1.415       .  A
C2246      C2247   1.396       .  A
C2246      H2251   1.085       .  S
C2247      C2248   1.416       .  A
C2247      C2254   1.445       .  S
C2248      C2249   1.405       .  A
C2249      C2250   1.399       .  A
C2249      H2252   1.085       .  S
C2250      C2253   1.445       .  S
C2253      N2255   1.157       .  T
C2254      N2256   1.158       .  T
C2257      C2258   1.405       .  A
C2258      C2259   1.400       .  A
C2258      H2263   1.085       .  S
C2259      C2260   1.413       .  A
C2259      C2266   1.445       .  S
C2261      C2262   1.398       .  A
C2261      H2264   1.085       .  S
C2262      C2265   1.445       .  S
C2265      N2267   1.157       .  T
C2266      N2268   1.157       .  T
C2269      C3182   1.405   1_545  A
C2269      C2274   1.414       .  A
C2270      C3181   1.405       .  A
C2270      C2271   1.398       .  A
C2270      H2275   1.085       .  S
C2271      C2272   1.415       .  A
C2271      C2278   1.445       .  S
C2272      C3185   1.405       .  A
C2273      C3184   1.405       .  A
C2273      C2274   1.396       .  A
C2273      H2276   1.085       .  S
C2274      C2277   1.444       .  S
C2277      N2279   1.157       .  T
C2278      N2280   1.157       .  T
C2281      C3194   1.407   1_545  A
C2281      C2286   1.416       .  A
C2282      C3193   1.406       .  A
C2282      C2283   1.400       .  A
C2282      H2287   1.085       .  S
C2283      C2284   1.417       .  A
C2283      C2290   1.445       .  S
C2284      C3197   1.406       .  A
C2285      C3196   1.407       .  A
C2285      C2286   1.398       .  A
C2285      H2288   1.085       .  S
C2286      C2289   1.445       .  S
C2289      N2291   1.158       .  T
C2290      N2292   1.157       .  T
C2293      C3206   1.407   1_545  A
C2294      C3205   1.406       .  A
C2294      C2295   1.398       .  A
C2294      H2299   1.084       .  S
C2295      C3208   1.411       .  A
C2295      C2302   1.445       .  S
C2296      C3029   1.484       .  S
C2296      C3207   1.414   1_545  A
C2297      C2298   1.398       .  A
C2297      H2300   1.085       .  S
C2298      C2301   1.444   1_655  S
C2301      N2303   1.157       .  T
C2302      N2304   1.157       .  T
C2305      C2306   1.408       .  A
C2305      C2310   1.417       .  A
C2306      C2307   1.403       .  A
C2306      H2311   1.085       .  S
C2307      C2308   1.417       .  A
C2307      C2314   1.444       .  S
C2308      C2309   1.406       .  A
C2309      C2310   1.395       .  A
C2309      H2312   1.085       .  S
C2310      C2313   1.446       .  S
C2313      N2315   1.158       .  T
C2314      N2316   1.158       .  T
C2317      C3230   1.405       .  A
C2317      C2322   1.416       .  A
C2318      C3229   1.404       .  A
C2318      C2319   1.398       .  A
C2318      H2323   1.085       .  S
C2319      C3232   1.411       .  A
C2319      C2326   1.445       .  S
C2320      C3231   1.417       .  A
C2320      C2321   1.408       .  A
C2321      C2322   1.402       .  A
C2321      H2324   1.085       .  S
C2322      C2325   1.444       .  S
C2325      N2327   1.158       .  T
C2326      N2328   1.157       .  T
C2329      C2330   1.407       .  A
C2329      C2334   1.415       .  A
C2330      C2331   1.400       .  A
C2330      H2335   1.085       .  S
C2331      C2332   1.415       .  A
C2331      C2338   1.442       .  S
C2332      C2333   1.406       .  A
C2333      C2334   1.396       .  A
C2333      H2336   1.085       .  S
C2334      C2337   1.445       .  S
C2337      N2339   1.157       .  T
C2338      N2340   1.157       .  T
C2341      C2342   1.405       .  A
C2341      C2346   1.413       .  A
C2342      C2343   1.398       .  A
C2342      H2347   1.085       .  S
C2343      C2344   1.413       .  A
C2343      C2350   1.445       .  S
C2344      C2345   1.405       .  A
C2345      C2346   1.398       .  A
C2345      H2348   1.085       .  S
C2346      C2349   1.445       .  S
C2349      N2351   1.157       .  T
C2350      N2352   1.157       .  T
C2353      C2354   1.404       .  A
C2354      C2355   1.396       .  A
C2354      H2359   1.085       .  S
C2355      C2356   1.414       .  A
C2355      C2362   1.445       .  S
C2357      C2358   1.399       .  A
C2357      H2360   1.085       .  S
C2358      C2361   1.445       .  S
C2361      N2363   1.157       .  T
C2362      N2364   1.157       .  T
C2365      C2366   1.406       .  A
C2365      C2370   1.415       .  A
C2366      C2367   1.396       .  A
C2366      H2371   1.085       .  S
C2367      C2368   1.416       .  A
C2367      C2374   1.446       .  S
C2368      C2369   1.407       .  A
C2369      C2370   1.398       .  A
C2369      H2372   1.085       .  S
C2370      C2373   1.445       .  S
C2373      N2375   1.157       .  T
C2374      N2376   1.158       .  T
C2377      C2378   1.406       .  A
C2377      C2382   1.414       .  A
C2378      C2379   1.397       .  A
C2378      H2383   1.085       .  S
C2379      C2380   1.413       .  A
C2379      C2386   1.445       .  S
C2380      C2381   1.406       .  A
C2381      C2382   1.400       .  A
C2381      H2384   1.085       .  S
C2382      C2385   1.445       .  S
C2385      N2387   1.157       .  T
C2386      N2388   1.157       .  T
C2389      C3306   1.418       .  A
C2390      C2391   1.396       .  A
C2390      H2395   1.085       .  S
C2391      C2398   1.445       .  S
C2392      C3305   1.405       .  A
C2393      C3304   1.405       .  A
C2393      C2394   1.402       .  A
C2393      H2396   1.085       .  S
C2394      C3301   1.414       .  A
C2394      C2397   1.445       .  S
C2397      N2399   1.157       .  T
C2398      N2400   1.157       .  T
C2401      C2402   1.407       .  A
C2401      C2406   1.411       .  A
C2402      C2403   1.401   1_556  A
C2402      H2407   1.085       .  S
C2403      C2404   1.413       .  A
C2403      C2410   1.445       .  S
C2404      C2405   1.405       .  A
C2405      C2406   1.398   1_554  A
C2405      H2408   1.085       .  S
C2406      C2409   1.444       .  S
C2409      N2411   1.157       .  T
C2410      N2412   1.157       .  T
C2413      C2414   1.406       .  A
C2413      C2418   1.415       .  A
C2414      C2415   1.399       .  A
C2414      H2419   1.085       .  S
C2415      C2416   1.414       .  A
C2415      C2422   1.444       .  S
C2416      C2417   1.405       .  A
C2417      C2418   1.395       .  A
C2417      H2420   1.085       .  S
C2418      C2421   1.444       .  S
C2421      N2423   1.157       .  T
C2422      N2424   1.157       .  T
C2425      C2426   1.404       .  A
C2425      C2430   1.416       .  A
C2426      C2427   1.395       .  A
C2426      H2431   1.085       .  S
C2427      C2428   1.415       .  A
C2427      C2434   1.446       .  S
C2428      C2429   1.405       .  A
C2429      C2430   1.400       .  A
C2429      H2432   1.085       .  S
C2430      C2433   1.444       .  S
C2433      N2435   1.157       .  T
C2434      N2436   1.158       .  T
C2437      C2438   1.404       .  A
C2437      C3354   1.415       .  A
C2438      C2439   1.399   1_556  A
C2438      H2443   1.085       .  S
C2439      C2440   1.414       .  A
C2439      C2446   1.443       .  S
C2440      C3353   1.403       .  A
C2441      C3352   1.400       .  A
C2441      C2442   1.397   1_554  A
C2441      H2444   1.085       .  S
C2442      C3349   1.418       .  A
C2442      C2445   1.445       .  S
C2445      N2447   1.157       .  T
C2446      N2448   1.157       .  T
C2449      C2454   1.416       .  A
C2450      C2451   1.399   1_556  A
C2450      H2455   1.085       .  S
C2451      C2458   1.445       .  S
C2452      C2453   1.402       .  A
C2453      C2454   1.399   1_554  A
C2453      H2456   1.085       .  S
C2454      C2457   1.444       .  S
C2457      N2459   1.157       .  T
C2458      N2460   1.157       .  T
C2461      C2466   1.413       .  A
C2462      C2463   1.396       .  A
C2462      H2467   1.085       .  S
C2463      C2470   1.445       .  S
C2464      C2465   1.405       .  A
C2465      C2466   1.399       .  A
C2465      H2468   1.085       .  S
C2466      C2469   1.445       .  S
C2469      N2471   1.157       .  T
C2470      N2472   1.157       .  T
C2473      C2474   1.406       .  A
C2474      C2475   1.398       .  A
C2474      H2479   1.085       .  S
C2475      C2476   1.416       .  A
C2475      C2482   1.445       .  S
C2477      C2478   1.398       .  A
C2477      H2480   1.085       .  S
C2478      C2481   1.444       .  S
C2481      N2483   1.157       .  T
C2482      N2484   1.157       .  T
C2485      C2486   1.405       .  A
C2486      C2487   1.400   1_554  A
C2486      H2491   1.085       .  S
C2487      C2488   1.414       .  A
C2487      C2494   1.445       .  S
C2489      C2490   1.402   1_556  A
C2489      H2492   1.085       .  S
C2490      C2493   1.444       .  S
C2493      N2495   1.157       .  T
C2494      N2496   1.157       .  T
C2497      C2498   1.405       .  A
C2497      C2502   1.414       .  A
C2498      C2499   1.396       .  A
C2498      H2503   1.085       .  S
C2499      C2500   1.415       .  A
C2499      C2506   1.445       .  S
C2500      C2501   1.406       .  A
C2501      C2502   1.399       .  A
C2501      H2504   1.085       .  S
C2502      C2505   1.444       .  S
C2505      N2507   1.157       .  T
C2506      N2508   1.157       .  T
C2509      C3422   1.407   1_545  A
C2509      C2514   1.417       .  A
C2510      C3421   1.406       .  A
C2510      C2511   1.395       .  A
C2510      H2515   1.085       .  S
C2511      C2512   1.416       .  A
C2511      C2518   1.446       .  S
C2512      C3425   1.409       .  A
C2513      C3424   1.408       .  A
C2513      C2514   1.403       .  A
C2513      H2516   1.085       .  S
C2514      C2517   1.444       .  S
C2517      N2519   1.157       .  T
C2518      N2520   1.157       .  T
C2521      C2526   1.416       .  A
C2522      C2523   1.397       .  A
C2522      H2527   1.085       .  S
C2523      C2530   1.445       .  S
C2524      C2525   1.407       .  A
C2525      C2526   1.398       .  A
C2525      H2528   1.085       .  S
C2526      C2529   1.445       .  S
C2529      N2531   1.158       .  T
C2530      N2532   1.157       .  T
C2533      C2534   1.404       .  A
C2533      C2538   1.415       .  A
C2534      C2535   1.397       .  A
C2534      H2539   1.085       .  S
C2535      C2536   1.416       .  A
C2535      C2542   1.444       .  S
C2536      C2537   1.405       .  A
C2537      C2538   1.399       .  A
C2537      H2540   1.085       .  S
C2538      C2541   1.444       .  S
C2541      N2543   1.157       .  T
C2542      N2544   1.157       .  T
C2545      C2546   1.406       .  A
C2545      C2550   1.417       .  A
C2546      C2547   1.400       .  A
C2546      H2551   1.085       .  S
C2547      C2548   1.417       .  A
C2547      C2554   1.445       .  S
C2548      C2549   1.404       .  A
C2549      C2550   1.396       .  A
C2549      H2552   1.085       .  S
C2550      C2553   1.445       .  S
C2553      N2555   1.157       .  T
C2554      N2556   1.158       .  T
C2557      C2562   1.412       .  A
C2558      C2559   1.399       .  A
C2558      H2563   1.085   1_455  S
C2559      C2566   1.445   1_455  S
C2560      C2561   1.406       .  A
C2561      C2562   1.403       .  A
C2561      H2564   1.085       .  S
C2562      C2565   1.443       .  S
C2565      N2567   1.157       .  T
C2566      N2568   1.158       .  T
C2569      C2570   1.404       .  A
C2569      C3486   1.412   1_545  A
C2570      C2571   1.397       .  A
C2570      H2575   1.085       .  S
C2571      C2572   1.413       .  A
C2571      C2578   1.445       .  S
C2572      C3485   1.403   1_545  A
C2573      C3484   1.405       .  A
C2573      C2574   1.397       .  A
C2573      H2576   1.085       .  S
C2574      C3481   1.414       .  A
C2574      C2577   1.445       .  S
C2577      N2579   1.157       .  T
C2578      N2580   1.157       .  T
C2581      C2582   1.405   1_545  A
C2581      C3498   1.416       .  A
C2582      C2583   1.397       .  A
C2582      H2587   1.085       .  S
C2583      C2584   1.416   1_565  A
C2583      C2590   1.445       .  S
C2584      C3497   1.406       .  A
C2585      C3496   1.404       .  A
C2585      C2586   1.398       .  A
C2585      H2588   1.085       .  S
C2586      C3493   1.415       .  A
C2586      C2589   1.445       .  S
C2589      N2591   1.158       .  T
C2590      N2592   1.157       .  T
C2593      C2594   1.406       .  A
C2593      C2598   1.415       .  A
C2594      C2595   1.395       .  A
C2594      H2599   1.085       .  S
C2595      C2596   1.416       .  A
C2595      C2602   1.446       .  S
C2596      C2597   1.407       .  A
C2597      C2598   1.401       .  A
C2597      H2600   1.084       .  S
C2598      C2601   1.444       .  S
C2601      N2603   1.157       .  T
C2602      N2604   1.158       .  T
C2605      C2606   1.402       .  A
C2605      C2610   1.414       .  A
C2606      C2607   1.396       .  A
C2606      H2611   1.085       .  S
C2607      C2608   1.413       .  A
C2607      C2614   1.443       .  S
C2608      C2609   1.403       .  A
C2609      C2610   1.398       .  A
C2609      H2612   1.085       .  S
C2610      C2613   1.445       .  S
C2613      N2615   1.157       .  T
C2614      N2616   1.157       .  T
C2617      C2618   1.406       .  A
C2617      C2622   1.416       .  A
C2618      C2619   1.398       .  A
C2618      H2623   1.085       .  S
C2619      C2620   1.416       .  A
C2619      C2626   1.445       .  S
C2620      C2621   1.406       .  A
C2621      C2622   1.400       .  A
C2621      H2624   1.085       .  S
C2622      C2625   1.445       .  S
C2625      N2627   1.157       .  T
C2626      N2628   1.158       .  T
C2629      C2630   1.406       .  A
C2629      C2634   1.416       .  A
C2630      C2631   1.397       .  A
C2630      H2635   1.085       .  S
C2631      C2632   1.416       .  A
C2631      C2638   1.445       .  S
C2632      C2633   1.406       .  A
C2633      C2634   1.400       .  A
C2633      H2636   1.085       .  S
C2634      C2637   1.445       .  S
C2637      N2639   1.157       .  T
C2638      N2640   1.157       .  T
C2641      C3554   1.407       .  A
C2641      C2646   1.415       .  A
C2642      C3553   1.405       .  A
C2642      C2643   1.401   1_545  A
C2642      H2647   1.085       .  S
C2643      C3556   1.415       .  A
C2643      C2650   1.445       .  S
C2644      C3555   1.416       .  A
C2644      C2645   1.406       .  A
C2645      C2646   1.397       .  A
C2645      H2648   1.085       .  S
C2646      C2649   1.445       .  S
C2649      N2651   1.158       .  T
C2650      N2652   1.157       .  T
C2653      C3566   1.403   1_545  A
C2653      C2658   1.411       .  A
C2654      C3565   1.405       .  A
C2654      C2655   1.399       .  A
C2654      H2659   1.085       .  S
C2655      C2656   1.413       .  A
C2655      C2662   1.445       .  S
C2656      C3569   1.406       .  A
C2657      C3568   1.408   1_545  A
C2657      C2658   1.401       .  A
C2657      H2660   1.084       .  S
C2658      C2661   1.444       .  S
C2661      N2663   1.157       .  T
C2662      N2664   1.157       .  T
C2665      C2670   1.415       .  A
C2666      C2667   1.399       .  A
C2666      H2671   1.085       .  S
C2667      C2674   1.444       .  S
C2668      C2669   1.405       .  A
C2669      C2670   1.398       .  A
C2669      H2672   1.085       .  S
C2670      C2673   1.445       .  S
C2673      N2675   1.157       .  T
C2674      N2676   1.157       .  T
C2677      C2682   1.414       .  A
C2678      C2679   1.400       .  A
C2678      H2683   1.085       .  S
C2679      C2686   1.444       .  S
C2680      C2681   1.405       .  A
C2681      C2682   1.399       .  A
C2681      H2684   1.085       .  S
C2682      C2685   1.445       .  S
C2685      N2687   1.157       .  T
C2686      N2688   1.157       .  T
C2689      C2694   1.415       .  A
C2690      C2691   1.398       .  A
C2690      H2695   1.085       .  S
C2691      C2698   1.445       .  S
C2692      C2693   1.406       .  A
C2693      C2694   1.398       .  A
C2693      H2696   1.085       .  S
C2694      C2697   1.445       .  S
C2697      N2699   1.157       .  T
C2698      N2700   1.157       .  T
C2701      C2706   1.416       .  A
C2702      C2703   1.396       .  A
C2702      H2707   1.091       .  S
C2703      C2710   1.445       .  S
C2704      C2705   1.405       .  A
C2705      C2706   1.399       .  A
C2705      H2708   1.090       .  S
C2706      C2709   1.445       .  S
C2709      N2711   1.158       .  T
C2710      N2712   1.158       .  T
C2713      C3626   1.408       .  A
C2714      C3625   1.405       .  A
C2714      C2715   1.401       .  A
C2714      H2719   1.085       .  S
C2715      C3628   1.414       .  A
C2715      C2722   1.445       .  S
C2716      C3627   1.418       .  A
C2717      C2718   1.397       .  A
C2717      H2720   1.085       .  S
C2718      C2721   1.445       .  S
C2721      N2723   1.157       .  T
C2722      N2724   1.157       .  T
C2725      C3642   1.409       .  A
C2726      C2727   1.399       .  A
C2726      H2731   1.085       .  S
C2727      C2734   1.444       .  S
C2728      C3641   1.409       .  A
C2729      C3640   1.406       .  A
C2729      C2730   1.401       .  A
C2729      H2732   1.085       .  S
C2730      C3637   1.412       .  A
C2730      C2733   1.445       .  S
C2733      N2735   1.157       .  T
C2734      N2736   1.157       .  T
O2737     Ni2745   1.915       .  S
O2739     Ni2745   1.914       .  S
O2739      C2749   1.280       .  A
O2740     Ni2745   1.913       .  S
O2741     Ni2746   1.915       .  S
O2741      C2750   1.281       .  A
O2742     Ni2746   1.912       .  S
O2743     Ni2746   1.913       .  S
O2743      C2748   1.280       .  A
O2744      C2747   1.280       .  A
C2747      C3601   1.478       .  S
C2748      C3613   1.484       .  S
C2749      C3628   1.481       .  S
C2750      C3640   1.484       .  S
O2751     Ni2759   1.913       .  S
O2751      C2761   1.282       .  A
O2752     Ni2759   1.913       .  S
O2752      C2762   1.281       .  A
O2753     Ni2759   1.910       .  S
O2753      C2763   1.281       .  A
O2754     Ni2759   1.910       .  S
O2754      C2764   1.280       .  A
O2755     Ni2760   1.921       .  S
O2756     Ni2760   1.919       .  S
O2757     Ni2760   1.911       .  S
O2758     Ni2760   1.906       .  S
C2761      C3616   1.482       .  S
C2762      C3604   1.480       .  S
C2763      C3592   1.485       .  S
C2764      C3577   1.489       .  S
O2765      C2775   1.280       .  A
O2766     Ni2773   1.918       .  S
O2766      C2776   1.281       .  A
O2767     Ni2773   1.917       .  S
O2767      C2777   1.281       .  A
O2768     Ni2773   1.917       .  S
O2768      C2778   1.281       .  A
O2769     Ni2774   1.910       .  S
O2770     Ni2774   1.909       .  S
O2771      C2776   1.281       .  A
O2772     Ni2774   1.909       .  S
O2772      C2775   1.280       .  A
C2775      C3544   1.473       .  S
C2776      C3529   1.485       .  S
C2777      C3568   1.489       .  S
C2778      C3556   1.483       .  S
O2779     Ni2787   1.914       .  S
O2779      C2789   1.281       .  A
O2780     Ni2787   1.914       .  S
O2780      C2790   1.281       .  A
O2781     Ni2787   1.918       .  S
O2781      C2791   1.283       .  A
O2782     Ni2787   1.918       .  S
O2782      C2792   1.281       .  A
O2783     Ni2788   1.910       .  S
O2783      C2792   1.281       .  A
O2784     Ni2788   1.918       .  S
O2784      C2791   1.281       .  A
O2785     Ni2788   1.912       .  S
O2785      C2790   1.281       .  A
O2786     Ni2788   1.910       .  S
O2786      C2789   1.280       .  A
Ni2787    Ni2788   2.385       .  S
C2789      C3541   1.476       .  S
C2790      C3532   1.486       .  S
C2791      C3517   1.490       .  S
C2792      C3508   1.482       .  S
O2793     Ni2801   1.912       .  S
O2795     Ni2801   1.909       .  S
O2796     Ni2801   1.907       .  S
O2797     Ni2802   1.921       .  S
O2797      C2806   1.282       .  A
O2798     Ni2802   1.923       .  S
O2798      C2805   1.282       .  A
O2799     Ni2802   1.906       .  S
O2799      C2804   1.278       .  A
O2800      C2803   1.280       .  A
C2803      C3481   1.481       .  S
C2804      C3493   1.478       .  S
C2805      C3469   1.493       .  S
C2806      C3637   1.480       .  S
O2807      C2817   1.280       .  A
O2808     Ni2815   1.914       .  S
O2808      C2818   1.281       .  A
O2809     Ni2815   1.908       .  S
O2809      C2819   1.279       .  A
O2810     Ni2815   1.905       .  S
O2810      C2820   1.280       .  A
O2811     Ni2816   1.914       .  S
O2812     Ni2816   1.913       .  S
O2813      C2818   1.280       .  A
O2814     Ni2816   1.913       .  S
O2814      C2817   1.281       .  A
C2817      C3445   1.479       .  S
C2818      C3460   1.482       .  S
C2819      C3589   1.475       .  S
C2820      C3436   1.481       .  S
O2821     Ni2829   1.910       .  S
O2822     Ni2829   1.911       .  S
O2823     Ni2829   1.911       .  S
O2824     Ni2829   1.910       .  S
O2825     Ni2830   1.923       .  S
O2825      C2834   1.283       .  A
O2826     Ni2830   1.925       .  S
O2826      C2833   1.283       .  A
O2827     Ni2830   1.908       .  S
O2827      C2832   1.279       .  A
O2828     Ni2830   1.911       .  S
O2828      C2831   1.280       .  A
C2831      C3496   1.478       .  S
C2832      C3484   1.480       .  S
C2833      C3421   1.491       .  S
C2834      C3565   1.479       .  S
O2835     Ni2843   1.910       .  S
O2835      C2845   1.281       .  A
O2836     Ni2843   1.907       .  S
O2836      C2846   1.280       .  A
O2837     Ni2843   1.921       .  S
O2837      C2847   1.282       .  A
O2838     Ni2843   1.922       .  S
O2838      C2848   1.282       .  A
O2839     Ni2844   1.912       .  S
O2839      C2848   1.280       .  A
O2840     Ni2844   1.912       .  S
O2840      C2847   1.280       .  A
O2841     Ni2844   1.910       .  S
O2841      C2846   1.280       .  A
O2842     Ni2844   1.912       .  S
O2842      C2845   1.280       .  A
Ni2843    Ni2844   2.388       .  S
C2845      C3457   1.480       .  S
C2846      C3448   1.479       .  S
C2847      C3409   1.479       .  S
C2848      C3520   1.481       .  S
O2849     Ni2857   1.916       .  S
O2849      C2859   1.281       .  A
O2850      C2860   1.282       .  A
O2851     Ni2857   1.919       .  S
O2851      C2861   1.282       .  A
O2852     Ni2857   1.917       .  S
O2852      C2862   1.281       .  A
O2853     Ni2858   1.912       .  S
O2854     Ni2858   1.914       .  S
O2855     Ni2858   1.910       .  S
C2862      C3625   1.482       .  S
O2863     Ni2871   1.909       .  S
O2863      C2873   1.279       .  A
O2864     Ni2871   1.909       .  S
O2864      C2874   1.279       .  A
O2865     Ni2871   1.912       .  S
O2865      C2875   1.281       .  A
O2866     Ni2871   1.915       .  S
O2866      C2876   1.282       .  A
O2867     Ni2872   1.917       .  S
O2868     Ni2872   1.917       .  S
O2869     Ni2872   1.910       .  S
O2870     Ni2872   1.910       .  S
C2873      C3376   1.487       .  S
C2874      C3388   1.479       .  S
C2875      C3364   1.477       .  S
C2876      C3580   1.489       .  S
O2877      C2887   1.281       .  A
O2878     Ni2885   1.914       .  S
O2878      C2888   1.283       .  A
O2879     Ni2885   1.912       .  S
O2879      C2889   1.280   1_565  A
O2880     Ni2885   1.909       .  S
O2880      C2890   1.280   1_565  A
O2881     Ni2886   1.913       .  S
O2882     Ni2886   1.911       .  S
O2883      C2888   1.278       .  A
O2884     Ni2886   1.913       .  S
O2884      C2887   1.281       .  A
C2887      C3337   1.485       .  S
C2888      C3325   1.485       .  S
C2889      C3553   1.481       .  S
C2890      C3352   1.473       .  S
O2891     Ni2899   1.907       .  S
O2891      C2901   1.280       .  A
O2892     Ni2899   1.909       .  S
O2892      C2902   1.280       .  A
O2893     Ni2899   1.906       .  S
O2893      C2903   1.280       .  A
O2894     Ni2899   1.903       .  S
O2894      C2904   1.278       .  A
O2895     Ni2900   1.920       .  S
O2895      C2904   1.283       .  A
O2896     Ni2900   1.918       .  S
O2896      C2903   1.281       .  A
O2897     Ni2900   1.925       .  S
O2897      C2902   1.283       .  A
O2898     Ni2900   1.924       .  S
O2898      C2901   1.282       .  A
Ni2899    Ni2900   2.385       .  S
C2901      C3505   1.483       .  S
C2902      C3316   1.485       .  S
C2903      C3340   1.483       .  S
C2904      C3328   1.487       .  S
O2905      C2915   1.281       .  A
O2906      C2916   1.280       .  A
O2907     Ni2913   1.916       .  S
O2908     Ni2913   1.914       .  S
O2909     Ni2914   1.916       .  S
O2909      C2918   1.281   1_565  A
O2910     Ni2914   1.915       .  S
O2910      C2917   1.282   1_565  A
O2911      C2916   1.280       .  A
O2912      C2915   1.281       .  A
C2915      C3280   1.481       .  S
C2916      C3289   1.475       .  S
C2917      C3301   1.481       .  S
C2918      C3400   1.469   1_545  S
O2919     Ni2927   1.909       .  S
O2919      C2929   1.280       .  A
O2920      C2930   1.280       .  A
O2921     Ni2927   1.909       .  S
O2921      C2931   1.280       .  A
O2922     Ni2927   1.910       .  S
O2922      C2932   1.280       .  A
O2923     Ni2928   1.915       .  S
O2924     Ni2928   1.916       .  S
O2925     Ni2928   1.917       .  S
O2925      C2930   1.282       .  A
O2926      C2929   1.282       .  A
C2929      C3253   1.488       .  S
C2930      C3241   1.485       .  S
C2931      C3265   1.488       .  S
C2932      C3361   1.482       .  S
O2933     Ni2941   1.922       .  S
O2933      C2943   1.282       .  A
O2934      C2944   1.281       .  A
O2935     Ni2941   1.919       .  S
O2935      C2945   1.282   1_565  A
O2936     Ni2941   1.917       .  S
O2936      C2946   1.281       .  A
O2937     Ni2942   1.903       .  S
O2938     Ni2942   1.903       .  S
O2939     Ni2942   1.910       .  S
O2939      C2944   1.281       .  A
O2940      C2943   1.280       .  A
C2943      C3256   1.488       .  S
C2944      C3244   1.484       .  S
C2945      C3349   1.486       .  S
C2946      C3229   1.475       .  S
O2947     Ni2955   1.910       .  S
O2947      C2957   1.281       .  A
O2948     Ni2955   1.908       .  S
O2948      C2958   1.280       .  A
O2949     Ni2955   1.921       .  S
O2949      C2959   1.283       .  A
O2950     Ni2955   1.922       .  S
O2950      C2960   1.282       .  A
O2951     Ni2956   1.915       .  S
O2951      C2960   1.281       .  A
O2952     Ni2956   1.914       .  S
O2952      C2959   1.281       .  A
O2953     Ni2956   1.912       .  S
O2953      C2958   1.280       .  A
O2954     Ni2956   1.908       .  S
O2954      C2957   1.279       .  A
Ni2955    Ni2956   2.388       .  S
C2957      C3277   1.478       .  S
C2958      C3292   1.475       .  S
C2959      C3313   1.484       .  S
C2960      C3217   1.481       .  S
O2961     Ni2969   1.915       .  S
O2962     Ni2969   1.914       .  S
O2964     Ni2969   1.906       .  S
O2965      C2974   1.280       .  A
O2966     Ni2970   1.912       .  S
O2966      C2973   1.280       .  A
O2967     Ni2970   1.920       .  S
O2967      C2972   1.282       .  A
O2968     Ni2970   1.918       .  S
O2968      C2971   1.282       .  A
C2971      C3205   1.484       .  S
C2972      C3472   1.492       .  S
C2973      C3193   1.488       .  S
C2974      C3181   1.481       .  S
O2975      C2985   1.280       .  A
O2976     Ni2983   1.913       .  S
O2976      C2986   1.282       .  A
O2977     Ni2983   1.904       .  S
O2977      C2987   1.279       .  A
O2978     Ni2983   1.906       .  S
O2978      C2988   1.279       .  A
O2979     Ni2984   1.916       .  S
O2980     Ni2984   1.917       .  S
O2981      C2986   1.279       .  A
O2982     Ni2984   1.911       .  S
O2982      C2985   1.280       .  A
C2985      C3148   1.478       .  S
C2986      C3157   1.481       .  S
C2987      C3433   1.481       .  S
C2988      C3169   1.480       .  S
O2989     Ni2997   1.910       .  S
O2989      C2999   1.280   1_565  A
O2990     Ni2997   1.907       .  S
O2990      C3000   1.279   1_565  A
O2991     Ni2997   1.914       .  S
O2991      C3001   1.281   1_565  A
O2992     Ni2997   1.914       .  S
O2992      C3002   1.281   1_565  A
O2993     Ni2998   1.918       .  S
O2994     Ni2998   1.916       .  S
O2995     Ni2998   1.910       .  S
O2996     Ni2998   1.912       .  S
C2999      C3196   1.486       .  S
C3000      C3184   1.479       .  S
C3001      C3133   1.482       .  S
C3002      C3424   1.493       .  S
O3003     Ni3011   1.911       .  S
O3003      C3013   1.281       .  A
O3004     Ni3011   1.907       .  S
O3004      C3014   1.280       .  A
O3005     Ni3011   1.922       .  S
O3005      C3015   1.283       .  A
O3006     Ni3011   1.922       .  S
O3006      C3016   1.282       .  A
O3007     Ni3012   1.911       .  S
O3007      C3016   1.280       .  A
O3008     Ni3012   1.913       .  S
O3008      C3015   1.281       .  A
O3009     Ni3012   1.913       .  S
O3009      C3014   1.281       .  A
O3010     Ni3012   1.909       .  S
O3010      C3013   1.280       .  A
Ni3011    Ni3012   2.388       .  S
C3013      C3160   1.480       .  S
C3014      C3145   1.479       .  S
C3015      C3121   1.483       .  S
C3016      C3412   1.479       .  S
O3017      C3027   1.280       .  A
O3018      C3028   1.282       .  A
O3019     Ni3025   1.916       .  S
O3019      C3029   1.281   1_565  A
O3020     Ni3025   1.913       .  S
O3020      C3030   1.281   1_565  A
O3021     Ni3026   1.918       .  S
O3022     Ni3026   1.918       .  S
O3023      C3028   1.279       .  A
O3024      C3027   1.281       .  A
C3027      C3109   1.482       .  S
C3028      C3100   1.479       .  S
C3030      C3304   1.481       .  S
O3031      C3041   1.280       .  A
O3032     Ni3039   1.908       .  S
O3032      C3042   1.280       .  A
O3033     Ni3039   1.914       .  S
O3034     Ni3039   1.912       .  S
O3035     Ni3040   1.906       .  S
O3035      C3044   1.279       .  A
O3036     Ni3040   1.905       .  S
O3036      C3043   1.280       .  A
O3037      C3042   1.280       .  A
O3038     Ni3040   1.915       .  S
O3038      C3041   1.282       .  A
C3041      C3085   1.488       .  S
C3042      C3073   1.481       .  S
C3043      C3268   1.487       .  S
C3044      C3172   1.478       .  S
O3045      C3055   1.281       .  A
O3046     Ni3053   1.912       .  S
O3046      C3056   1.280       .  A
O3047     Ni3053   1.905       .  S
O3048     Ni3053   1.903       .  S
O3049     Ni3054   1.910       .  S
O3049      C3058   1.280       .  A
O3050     Ni3054   1.913       .  S
O3050      C3057   1.281   1_565  A
O3051      C3056   1.280       .  A
O3052     Ni3054   1.918       .  S
O3052      C3055   1.282       .  A
C3055      C3088   1.489       .  S
C3056      C3076   1.483       .  S
C3057      C3136   1.484       .  S
C3058      C3232   1.475       .  S
O3059     Ni3067   1.915       .  S
O3059      C3069   1.281       .  A
O3060     Ni3067   1.914       .  S
O3060      C3070   1.281       .  A
O3061     Ni3067   1.913       .  S
O3061      C3071   1.280       .  A
O3062     Ni3067   1.913       .  S
O3062      C3072   1.281       .  A
O3063     Ni3068   1.908       .  S
O3063      C3072   1.280       .  A
O3064     Ni3068   1.912       .  S
O3064      C3071   1.281       .  A
O3065     Ni3068   1.922       .  S
O3065      C3070   1.283       .  A
O3066     Ni3068   1.922       .  S
O3066      C3069   1.282       .  A
Ni3067    Ni3068   2.386       .  S
C3069      C3220   1.481       .  S
C3070      C3124   1.489       .  S
C3071      C3097   1.478       .  S
C3072      C3112   1.484       .  S
C3073      C3074   1.406       .  A
C3073      C3078   1.414       .  A
C3074      C3075   1.398       .  A
C3074      H3079   1.085       .  S
C3075      C3076   1.415       .  A
C3075      C3082   1.445       .  S
C3076      C3077   1.406       .  A
C3077      C3078   1.395       .  A
C3077      H3080   1.085       .  S
C3078      C3081   1.445       .  S
C3081      N3083   1.157       .  T
C3082      N3084   1.158       .  T
C3085      C3086   1.406       .  A
C3085      C3090   1.416       .  A
C3086      C3087   1.400       .  A
C3086      H3091   1.085       .  S
C3087      C3088   1.416       .  A
C3087      C3094   1.444       .  S
C3088      C3089   1.407       .  A
C3089      C3090   1.398       .  A
C3089      H3092   1.085       .  S
C3090      C3093   1.445       .  S
C3093      N3095   1.158       .  T
C3094      N3096   1.157       .  T
C3097      C3098   1.404       .  A
C3097      C3102   1.413       .  A
C3098      C3099   1.398       .  A
C3098      H3103   1.085       .  S
C3099      C3100   1.414       .  A
C3099      C3106   1.445       .  S
C3100      C3101   1.404       .  A
C3101      C3102   1.399       .  A
C3101      H3104   1.085       .  S
C3102      C3105   1.444       .  S
C3105      N3107   1.157       .  T
C3106      N3108   1.157       .  T
C3109      C3110   1.405       .  A
C3109      C3114   1.413       .  A
C3110      C3111   1.397       .  A
C3110      H3115   1.085       .  S
C3111      C3112   1.415       .  A
C3111      C3118   1.445       .  S
C3112      C3113   1.407       .  A
C3113      C3114   1.398       .  A
C3113      H3116   1.085       .  S
C3114      C3117   1.445       .  S
C3117      N3119   1.157       .  T
C3118      N3120   1.157       .  T
C3121      C3122   1.405       .  A
C3121      C3126   1.412       .  A
C3122      C3123   1.401       .  A
C3122      H3127   1.085       .  S
C3123      C3124   1.415       .  A
C3123      C3130   1.444       .  S
C3124      C3125   1.408       .  A
C3125      C3126   1.401       .  A
C3125      H3128   1.084       .  S
C3126      C3129   1.445       .  S
C3129      N3131   1.157       .  T
C3130      N3132   1.157       .  T
C3133      C3138   1.414   1_545  A
C3134      C3135   1.397       .  A
C3134      H3139   1.085       .  S
C3135      C3142   1.445       .  S
C3136      C3137   1.405   1_545  A
C3137      C3138   1.399       .  A
C3137      H3140   1.085       .  S
C3138      C3141   1.445       .  S
C3141      N3143   1.157       .  T
C3142      N3144   1.157       .  T
C3145      C3146   1.405       .  A
C3145      C3150   1.414       .  A
C3146      C3147   1.397       .  A
C3146      H3151   1.085       .  S
C3147      C3148   1.413       .  A
C3147      C3154   1.445       .  S
C3148      C3149   1.405       .  A
C3149      C3150   1.398       .  A
C3149      H3152   1.085       .  S
C3150      C3153   1.445       .  S
C3153      N3155   1.157       .  T
C3154      N3156   1.157       .  T
C3157      C3158   1.405       .  A
C3157      C3162   1.415       .  A
C3158      C3159   1.398       .  A
C3158      H3163   1.085       .  S
C3159      C3160   1.414       .  A
C3159      C3166   1.445       .  S
C3160      C3161   1.404       .  A
C3161      C3162   1.398       .  A
C3161      H3164   1.085       .  S
C3162      C3165   1.445       .  S
C3165      N3167   1.158       .  T
C3166      N3168   1.157       .  T
C3169      C3170   1.404       .  A
C3170      C3171   1.398       .  A
C3170      H3175   1.085       .  S
C3171      C3172   1.414       .  A
C3171      C3178   1.445       .  S
C3173      C3174   1.397       .  A
C3173      H3176   1.085       .  S
C3174      C3177   1.445       .  S
C3177      N3179   1.157       .  T
C3178      N3180   1.157       .  T
C3181      C3186   1.415       .  A
C3182      C3183   1.396       .  A
C3182      H3187   1.085       .  S
C3183      C3184   1.414   1_565  A
C3183      C3190   1.445       .  S
C3185      C3186   1.397       .  A
C3185      H3188   1.085       .  S
C3186      C3189   1.445       .  S
C3189      N3191   1.157       .  T
C3190      N3192   1.157       .  T
C3193      C3198   1.416       .  A
C3194      C3195   1.397       .  A
C3194      H3199   1.085       .  S
C3195      C3196   1.416   1_565  A
C3195      C3202   1.445       .  S
C3197      C3198   1.398       .  A
C3197      H3200   1.085       .  S
C3198      C3201   1.445       .  S
C3201      N3203   1.158       .  T
C3202      N3204   1.158       .  T
C3206      C3207   1.403       .  A
C3206      H3211   1.084       .  S
C3207      C3214   1.445       .  S
C3209      C3210   1.402   1_655  A
C3209      H3212   1.085   1_655  S
C3210      C3213   1.445       .  S
C3213      N3215   1.158       .  T
C3214      N3216   1.157       .  T
C3217      C3218   1.405       .  A
C3217      C3222   1.412       .  A
C3218      C3219   1.404       .  A
C3218      H3223   1.085       .  S
C3219      C3220   1.413       .  A
C3219      C3226   1.444       .  S
C3220      C3221   1.403       .  A
C3221      C3222   1.399       .  A
C3221      H3224   1.085       .  S
C3222      C3225   1.445       .  S
C3225      N3227   1.157       .  T
C3226      N3228   1.157       .  T
C3229      C3234   1.412       .  A
C3230      C3231   1.394       .  A
C3230      H3235   1.085       .  S
C3231      C3238   1.446       .  S
C3232      C3233   1.404       .  A
C3233      C3234   1.398       .  A
C3233      H3236   1.085       .  S
C3234      C3237   1.444       .  S
C3237      N3239   1.157   1_565  T
C3238      N3240   1.158       .  T
C3241      C3242   1.407       .  A
C3241      C3246   1.414       .  A
C3242      C3243   1.398       .  A
C3242      H3247   1.085       .  S
C3243      C3244   1.415       .  A
C3243      C3250   1.445       .  S
C3244      C3245   1.406       .  A
C3245      C3246   1.398       .  A
C3245      H3248   1.085       .  S
C3246      C3249   1.445       .  S
C3249      N3251   1.157       .  T
C3250      N3252   1.158       .  T
C3253      C3254   1.408       .  A
C3253      C3258   1.415       .  A
C3254      C3255   1.400       .  A
C3254      H3259   1.084       .  S
C3255      C3256   1.415       .  A
C3255      C3262   1.445       .  S
C3256      C3257   1.407       .  A
C3257      C3258   1.398       .  A
C3257      H3260   1.085       .  S
C3258      C3261   1.445       .  S
C3261      N3263   1.157       .  T
C3262      N3264   1.158       .  T
C3265      C3266   1.408       .  A
C3266      C3267   1.402       .  A
C3266      H3271   1.084       .  S
C3267      C3268   1.415       .  A
C3267      C3274   1.444       .  S
C3269      C3270   1.400       .  A
C3269      H3272   1.085       .  S
C3270      C3273   1.445       .  S
C3273      N3275   1.158       .  T
C3274      N3276   1.157       .  T
C3277      C3278   1.403       .  A
C3277      C3282   1.414       .  A
C3278      C3279   1.396       .  A
C3278      H3283   1.085       .  S
C3279      C3280   1.414       .  A
C3279      C3286   1.443       .  S
C3280      C3281   1.405       .  A
C3281      C3282   1.398       .  A
C3281      H3284   1.085       .  S
C3282      C3285   1.445       .  S
C3285      N3287   1.157       .  T
C3286      N3288   1.157       .  T
C3289      C3290   1.404       .  A
C3289      C3294   1.412       .  A
C3290      C3291   1.397       .  A
C3290      H3295   1.085       .  S
C3291      C3292   1.412       .  A
C3291      C3298   1.445       .  S
C3292      C3293   1.404       .  A
C3293      C3294   1.397       .  A
C3293      H3296   1.085       .  S
C3294      C3297   1.445       .  S
C3297      N3299   1.157       .  T
C3298      N3300   1.157       .  T
C3302      C3303   1.398       .  A
C3302      H3307   1.085       .  S
C3303      C3310   1.445       .  S
C3305      C3306   1.399       .  A
C3305      H3308   1.085       .  S
C3306      C3309   1.445       .  S
C3309      N3311   1.157       .  T
C3310      N3312   1.157       .  T
C3313      C3314   1.406       .  A
C3313      C3318   1.413       .  A
C3314      C3315   1.402   1_556  A
C3314      H3319   1.085       .  S
C3315      C3316   1.413       .  A
C3315      C3322   1.444       .  S
C3316      C3317   1.406       .  A
C3317      C3318   1.400   1_554  A
C3317      H3320   1.085       .  S
C3318      C3321   1.444       .  S
C3321      N3323   1.157       .  T
C3322      N3324   1.157       .  T
C3325      C3326   1.403       .  A
C3325      C3330   1.417       .  A
C3326      C3327   1.395       .  A
C3326      H3331   1.085       .  S
C3327      C3328   1.417       .  A
C3327      C3334   1.445       .  S
C3328      C3329   1.406       .  A
C3329      C3330   1.401       .  A
C3329      H3332   1.085       .  S
C3330      C3333   1.445       .  S
C3333      N3335   1.158       .  T
C3334      N3336   1.157       .  T
C3337      C3338   1.407       .  A
C3337      C3342   1.415       .  A
C3338      C3339   1.400       .  A
C3338      H3343   1.085       .  S
C3339      C3340   1.414       .  A
C3339      C3346   1.445       .  S
C3340      C3341   1.405       .  A
C3341      C3342   1.397       .  A
C3341      H3344   1.085       .  S
C3342      C3345   1.445       .  S
C3345      N3347   1.157       .  T
C3346      N3348   1.157       .  T
C3349      C3350   1.408   1_545  A
C3350      C3351   1.401   1_566  A
C3350      H3355   1.084       .  S
C3351      C3352   1.410       .  A
C3351      C3358   1.444   1_545  S
C3353      C3354   1.397   1_554  A
C3353      H3356   1.085       .  S
C3354      C3357   1.445       .  S
C3357      N3359   1.157       .  T
C3358      N3360   1.157       .  T
C3361      C3366   1.415       .  A
C3362      C3363   1.400   1_556  A
C3362      H3367   1.085       .  S
C3363      C3370   1.444       .  S
C3364      C3365   1.403       .  A
C3365      C3366   1.399   1_554  A
C3365      H3368   1.085       .  S
C3366      C3369   1.445       .  S
C3369      N3371   1.157       .  T
C3370      N3372   1.157       .  T
C3373      C3378   1.416       .  A
C3374      C3375   1.398       .  A
C3374      H3379   1.085       .  S
C3375      C3382   1.444       .  S
C3376      C3377   1.407       .  A
C3377      C3378   1.399       .  A
C3377      H3380   1.085       .  S
C3378      C3381   1.445       .  S
C3381      N3383   1.158       .  T
C3382      N3384   1.157       .  T
C3385      C3386   1.404       .  A
C3386      C3387   1.398       .  A
C3386      H3391   1.085       .  S
C3387      C3388   1.414       .  A
C3387      C3394   1.445       .  S
C3389      C3390   1.398       .  A
C3389      H3392   1.085       .  S
C3390      C3393   1.444       .  S
C3393      N3395   1.157       .  T
C3394      N3396   1.157       .  T
C3397      C3398   1.410   1_565  A
C3398      C3399   1.398   1_554  A
C3398      H3403   1.084       .  S
C3399      C3400   1.406   1_545  A
C3399      C3406   1.445       .  S
C3401      C3402   1.399   1_556  A
C3401      H3404   1.085       .  S
C3402      C3405   1.443       .  S
C3405      N3407   1.157       .  T
C3406      N3408   1.157       .  T
C3409      C3410   1.403       .  A
C3409      C3414   1.413       .  A
C3410      C3411   1.399       .  A
C3410      H3415   1.085       .  S
C3411      C3412   1.413       .  A
C3411      C3418   1.445       .  S
C3412      C3413   1.404       .  A
C3413      C3414   1.403       .  A
C3413      H3416   1.085       .  S
C3414      C3417   1.444       .  S
C3417      N3419   1.157       .  T
C3418      N3420   1.157       .  T
C3421      C3426   1.416       .  A
C3422      C3423   1.399       .  A
C3422      H3427   1.085       .  S
C3423      C3424   1.417   1_565  A
C3423      C3430   1.445       .  S
C3425      C3426   1.404       .  A
C3425      H3428   1.084       .  S
C3426      C3429   1.444       .  S
C3429      N3431   1.157       .  T
C3430      N3432   1.157       .  T
C3433      C3438   1.415       .  A
C3434      C3435   1.401       .  A
C3434      H3439   1.085       .  S
C3435      C3442   1.445       .  S
C3436      C3437   1.404       .  A
C3437      C3438   1.395       .  A
C3437      H3440   1.085       .  S
C3438      C3441   1.446       .  S
C3441      N3443   1.158       .  T
C3442      N3444   1.158       .  T
C3445      C3446   1.405       .  A
C3445      C3450   1.413       .  A
C3446      C3447   1.396       .  A
C3446      H3451   1.085       .  S
C3447      C3448   1.413       .  A
C3447      C3454   1.445       .  S
C3448      C3449   1.406       .  A
C3449      C3450   1.398       .  A
C3449      H3452   1.085       .  S
C3450      C3453   1.444       .  S
C3453      N3455   1.157       .  T
C3454      N3456   1.157       .  T
C3457      C3458   1.404       .  A
C3457      C3462   1.414       .  A
C3458      C3459   1.396       .  A
C3458      H3463   1.085       .  S
C3459      C3460   1.415       .  A
C3459      C3466   1.445       .  S
C3460      C3461   1.406       .  A
C3461      C3462   1.400       .  A
C3461      H3464   1.085       .  S
C3462      C3465   1.445       .  S
C3465      N3467   1.157       .  T
C3466      N3468   1.157       .  T
C3469      C3474   1.417       .  A
C3470      C3471   1.398       .  A
C3470      H3475   1.085       .  S
C3471      C3478   1.445       .  S
C3472      C3473   1.408       .  A
C3473      C3474   1.403       .  A
C3473      H3476   1.085       .  S
C3474      C3477   1.444       .  S
C3477      N3479   1.158       .  T
C3478      N3480   1.157       .  T
C3481      C3482   1.406       .  A
C3482      C3483   1.397       .  A
C3482      H3487   1.085       .  S
C3483      C3484   1.415       .  A
C3483      C3490   1.446       .  S
C3485      C3486   1.397       .  A
C3485      H3488   1.085       .  S
C3486      C3489   1.445       .  S
C3489      N3491   1.157       .  T
C3490      N3492   1.158       .  T
C3493      C3494   1.403       .  A
C3494      C3495   1.395       .  A
C3494      H3499   1.085       .  S
C3495      C3496   1.414       .  A
C3495      C3502   1.445       .  S
C3497      C3498   1.398       .  A
C3497      H3500   1.085       .  S
C3498      C3501   1.445       .  S
C3501      N3503   1.158       .  T
C3502      N3504   1.157       .  T
C3505      C3506   1.404       .  A
C3505      C3510   1.414       .  A
C3506      C3507   1.396       .  A
C3506      H3511   1.085       .  S
C3507      C3508   1.413       .  A
C3507      C3514   1.445       .  S
C3508      C3509   1.406       .  A
C3509      C3510   1.404       .  A
C3509      H3512   1.085       .  S
C3510      C3513   1.444       .  S
C3513      N3515   1.157       .  T
C3514      N3516   1.157       .  T
C3517      C3518   1.406       .  A
C3517      C3522   1.419       .  A
C3518      C3519   1.398       .  A
C3518      H3523   1.084       .  S
C3519      C3520   1.412       .  A
C3519      C3526   1.445       .  S
C3520      C3521   1.403       .  A
C3521      C3522   1.404       .  A
C3521      H3524   1.085       .  S
C3522      C3525   1.444       .  S
C3525      N3527   1.157       .  T
C3526      N3528   1.157       .  T
C3529      C3530   1.405       .  A
C3529      C3534   1.414       .  A
C3530      C3531   1.398       .  A
C3530      H3535   1.085       .  S
C3531      C3532   1.415       .  A
C3531      C3538   1.445       .  S
C3532      C3533   1.407       .  A
C3533      C3534   1.400       .  A
C3533      H3536   1.085       .  S
C3534      C3537   1.445       .  S
C3537      N3539   1.157       .  T
C3538      N3540   1.157       .  T
C3541      C3542   1.403       .  A
C3541      C3546   1.413       .  A
C3542      C3543   1.398       .  A
C3542      H3547   1.085       .  S
C3543      C3544   1.411       .  A
C3543      C3550   1.443       .  S
C3544      C3545   1.402       .  A
C3545      C3546   1.398       .  A
C3545      H3548   1.085       .  S
C3546      C3549   1.445       .  S
C3549      N3551   1.157       .  T
C3550      N3552   1.156       .  T
C3553      C3558   1.413       .  A
C3554      C3555   1.399       .  A
C3554      H3559   1.085       .  S
C3555      C3562   1.445       .  S
C3556      C3557   1.404   1_565  A
C3557      C3558   1.398       .  A
C3557      H3560   1.085       .  S
C3558      C3561   1.443       .  S
C3561      N3563   1.157       .  T
C3562      N3564   1.158       .  T
C3565      C3570   1.411       .  A
C3566      C3567   1.400       .  A
C3566      H3571   1.085       .  S
C3567      C3568   1.417       .  A
C3567      C3574   1.444       .  S
C3569      C3570   1.399       .  A
C3569      H3572   1.084       .  S
C3570      C3573   1.443       .  S
C3573      N3575   1.157       .  T
C3574      N3576   1.157       .  T
C3577      C3582   1.417       .  A
C3578      C3579   1.402       .  A
C3578      H3583   1.085       .  S
C3579      C3586   1.445       .  S
C3580      C3581   1.406       .  A
C3581      C3582   1.399       .  A
C3581      H3584   1.085       .  S
C3582      C3585   1.445       .  S
C3585      N3587   1.158       .  T
C3586      N3588   1.158       .  T
C3589      C3594   1.411       .  A
C3590      C3591   1.398       .  A
C3590      H3595   1.085       .  S
C3591      C3598   1.442       .  S
C3592      C3593   1.407       .  A
C3593      C3594   1.398       .  A
C3593      H3596   1.084       .  S
C3594      C3597   1.445       .  S
C3597      N3599   1.157       .  T
C3598      N3600   1.156       .  T
C3601      C3606   1.413       .  A
C3602      C3603   1.399       .  A
C3602      H3607   1.085       .  S
C3603      C3610   1.445       .  S
C3604      C3605   1.405       .  A
C3605      C3606   1.399       .  A
C3605      H3608   1.085       .  S
C3606      C3609   1.445       .  S
C3609      N3611   1.157       .  T
C3610      N3612   1.158       .  T
C3613      C3618   1.416       .  A
C3614      C3615   1.396       .  A
C3614      H3619   1.090       .  S
C3615      C3622   1.445       .  S
C3616      C3617   1.404       .  A
C3617      C3618   1.399       .  A
C3617      H3620   1.090       .  S
C3618      C3621   1.444       .  S
C3621      N3623   1.157       .  T
C3622      N3624   1.158       .  T
C3626      C3627   1.403       .  A
C3626      H3631   1.084       .  S
C3627      C3634   1.445       .  S
C3629      C3630   1.399       .  A
C3629      H3632   1.085       .  S
C3630      C3633   1.445       .  S
C3633      N3635   1.157       .  T
C3634      N3636   1.158       .  T
C3638      C3639   1.399       .  A
C3638      H3643   1.085       .  S
C3639      C3646   1.445       .  S
C3641      C3642   1.401       .  A
C3641      H3644   1.084       .  S
C3642      C3645   1.444       .  S
C3645      N3647   1.157       .  T
C3646      N3648   1.157       .  T
