geometry optimzed in LAMMPS
_audit_creation_date              2020-12-01 
_audit_creation_method            'lammps2cif' 
_symmetry_space_group_name_H-M    'P1' 
_symmetry_Int_Tables_number       1 
_symmetry_cell_setting            triclinic 
loop_ 
_symmetry_equiv_pos_as_xyz 
  x,y,z 
_cell_length_a                    35.62182496 
_cell_length_b                    35.759115835017234 
_cell_length_c                    45.26157726386899 
_cell_angle_alpha                 90.44479587286396 
_cell_angle_beta                  89.83390252103496 
_cell_angle_gamma                 120.05511799032378 
loop_ 
_atom_site_label 
_atom_site_type_symbol 
_atom_site_fract_x 
_atom_site_fract_y 
_atom_site_fract_z 
_atom_site_charge 
O1          O  0.18598535  0.45085293  0.97151874    -0.73300
O2          O  0.23959872  0.04546079  0.03078087    -0.74300
O3          O  0.23531880  0.04147278  0.96796483    -0.62900
O4          O  0.19237353  0.45427331  0.03466002    -0.71300
O5          O  0.25080550  0.44787599  0.02862652    -0.70900
O6          O  0.29790762  0.04203962  0.96967342    -0.62200
O7          O  0.29847753  0.03912635  0.03261351    -0.74700
O8          O  0.24768086  0.45056832  0.96597272    -0.73400
Cu9        Cu  0.21112810  0.49804393  0.00133387     1.04600
Cu10       Cu  0.27588200  0.99481034  0.99913689     1.04300
C11         C  0.20824602  0.43685892  0.95833387     0.92900
C12         C  0.27656872  0.05641032  0.04180326     0.92000
C13         C  0.27406322  0.05559490  0.95865882     0.84100
C14         C  0.21530419  0.43730060  0.04184512     0.90400
C15         C  0.13271006  0.29854528  0.80823684     0.02700
C16         C  0.15234298  0.32404719  0.83355900    -0.13400
C17         C  0.12763063  0.32117069  0.85861635     0.00200
C18         C  0.08256102  0.29252433  0.85808003    -0.11900
C19         C  0.06243340  0.26741607  0.83298817     0.02700
C20         C  0.08744753  0.26998371  0.80834866    -0.11400
H21         H  0.18669247  0.34742396  0.83343568     0.08300
H22         H  0.06292217  0.28991515  0.87713690     0.05900
H23         H  0.07143486  0.24958409  0.78935883     0.05700
C24         C  0.36334741  0.18944531  0.80831032     0.02700
C25         C  0.33953219  0.16633585  0.83319942    -0.13400
C26         C  0.36045134  0.16023408  0.85756205     0.00200
C27         C  0.40576101  0.17737418  0.85641065    -0.11900
C28         C  0.42972996  0.20067364  0.83184624     0.02700
C29         C  0.40852072  0.20630276  0.80785876    -0.11400
H30         H  0.30504372  0.15473476  0.83402434     0.08300
H31         H  0.42265226  0.17268024  0.87458182     0.05900
H32         H  0.42739838  0.22433155  0.78890032     0.05700
O33         O  0.45298454  0.25570727  0.30454669    -0.73300
O34         O  0.04952351  0.30366557  0.36262367    -0.74300
O35         O  0.04440084  0.29926238  0.29993288    -0.62900
O36         O  0.45812267  0.25789201  0.36729781    -0.71300
O37         O  0.45267719  0.19341239  0.36302986    -0.70900
O38         O  0.04850734  0.23959962  0.30444697    -0.62200
O39         O  0.04429935  0.23944668  0.36731213    -0.74700
O40         O  0.45688843  0.19584166  0.30014494    -0.73400
Cu41       Cu  0.00127019  0.28135352  0.33359721     1.04600
Cu42       Cu  0.00054029  0.21479672  0.33373591     1.04300
C43         C  0.44090916  0.21929146  0.29219095     0.92900
C44         C  0.06106578  0.27916437  0.37505413     0.92000
C45         C  0.06044318  0.27571340  0.29205149     0.84100
C46         C  0.44153508  0.21851286  0.37535736     0.90400
C47         C  0.33333156  0.19674861  0.19107182     0.02700
C48         C  0.31241254  0.22135515  0.19004900    -0.13400
C49         C  0.28801049  0.21953046  0.16532766     0.00200
C50         C  0.28496698  0.19368180  0.14103359    -0.11900
C51         C  0.30640220  0.16954994  0.14108982     0.02700
C52         C  0.33012287  0.17113280  0.16635377    -0.11400
H53         H  0.31522317  0.24231599  0.20833113     0.08300
H54         H  0.26523555  0.19193383  0.12232681     0.05900
H55         H  0.34614375  0.15227131  0.16674782     0.05700
C56         C  0.17224796  0.30385058  0.19193874     0.02700
C57         C  0.19599988  0.28200461  0.19076610    -0.13400
C58         C  0.22135946  0.28559983  0.16608923     0.00200
C59         C  0.22256842  0.31042680  0.14196198    -0.11900
C60         C  0.19826969  0.33169670  0.14211719     0.02700
C61         C  0.17384787  0.32864168  0.16741093    -0.11400
H62         H  0.19439165  0.26148106  0.20875369     0.08300
H63         H  0.24273481  0.31327724  0.12318495     0.05900
H64         H  0.15576130  0.34546467  0.16784807     0.05700
O65         O  0.20151954  0.25103812  0.69524435    -0.73300
O66         O  0.25042481  0.20385728  0.63716733    -0.74300
O67         O  0.24809693  0.20598170  0.70012197    -0.62900
O68         O  0.20686651  0.25197024  0.63234888    -0.71300
O69         O  0.26834048  0.31420725  0.63704939    -0.70900
O70         O  0.31125128  0.26688393  0.69793176    -0.62200
O71         O  0.31177604  0.26687773  0.63497738    -0.74700
O72         O  0.26507799  0.31138791  0.70000842    -0.73400
Cu73       Cu  0.22446237  0.22597717  0.66616106     1.04600
Cu74       Cu  0.29125461  0.29194854  0.66751733     1.04300
C75         C  0.22538154  0.28750835  0.70766350     0.92900
C76         C  0.28783082  0.22780282  0.62610589     0.92000
C77         C  0.28688136  0.23029652  0.70972393     0.84100
C78         C  0.23208787  0.29107148  0.62413216     0.90400
C79         C  0.30586247  0.13895052  0.52568155     0.02700
C80         C  0.27936157  0.09362274  0.52488089    -0.13400
C81         C  0.27907148  0.06986257  0.50007768     0.00200
C82         C  0.30497853  0.09125559  0.47564579    -0.11900
C83         C  0.33102576  0.13663896  0.47556266     0.02700
C84         C  0.33127821  0.15997141  0.50080975    -0.11400
H85         H  0.25856016  0.07663008  0.54338513     0.08300
H86         H  0.30519018  0.07228870  0.45694445     0.05900
H87         H  0.35132943  0.19474598  0.50110957     0.05700
C88         C  0.19744968  0.37150682  0.52501462     0.02700
C89         C  0.17466284  0.34753078  0.49989776    -0.13400
C90         C  0.16931720  0.36803506  0.47509730     0.00200
C91         C  0.18770041  0.41334538  0.47571836    -0.11900
C92         C  0.21104011  0.43757101  0.50037983     0.02700
C93         C  0.21522393  0.41665337  0.52502643    -0.11400
H94         H  0.16241716  0.31305975  0.49929799     0.08300
H95         H  0.18381220  0.43000598  0.45713538     0.04700
H96         H  0.23277454  0.43579602  0.54415226     0.05700
C97         C  0.25290917  0.02326679  0.49995012    -0.13700
C98         C  0.23259196  0.48421217  0.50001581    -0.15200
C99         C  0.29736307  0.16886891  0.60519490    -0.13700
C100        C  0.30138402  0.20966030  0.60194500     0.08400
C101        C  0.30988661  0.22865389  0.57399819    -0.13700
C102        C  0.31196522  0.20605148  0.54928265    -0.13700
C103        C  0.30659249  0.16438490  0.55219851     0.08400
C104        C  0.30068514  0.14676123  0.58067820    -0.13700
H105        H  0.29030587  0.15355467  0.62663703     0.12400
H106        H  0.31183258  0.25960815  0.57098392     0.12400
H107        H  0.31568251  0.22052754  0.52778930     0.12400
H108        H  0.29763332  0.11542505  0.58402916     0.12400
C109        C  0.25306255  0.35163277  0.58908507    -0.13700
C110        C  0.22129612  0.31066141  0.59913171     0.08400
C111        C  0.18106752  0.28937785  0.58453761    -0.13700
C112        C  0.17293790  0.30898130  0.56048991    -0.13700
C113        C  0.20498283  0.35006760  0.55057968     0.08400
C114        C  0.24514910  0.37085217  0.56514482    -0.13700
H115        H  0.28468980  0.36891567  0.59945828     0.12400
H116        H  0.15600851  0.25777783  0.59169162     0.12400
H117        H  0.14149920  0.29219271  0.54984367     0.12400
H118        H  0.27102653  0.40186131  0.55773109     0.12400
C119        C  0.26533971  0.24365067  0.16515017    -0.13700
C120        C  0.24566230  0.26311101  0.16539467    -0.15200
C121        C  0.37083064  0.16351421  0.39622802    -0.13700
C122        C  0.41076448  0.20154226  0.39995851     0.08400
C123        C  0.42397346  0.21924649  0.42827186    -0.13700
C124        C  0.39823508  0.19825383  0.45278833    -0.13700
C125        C  0.35812082  0.15970392  0.44935034     0.08400
C126        C  0.34438635  0.14320350  0.42059335    -0.13700
H127        H  0.36044411  0.14919771  0.37446519     0.12400
H128        H  0.45535199  0.24793882  0.43158844     0.12400
H129        H  0.41071203  0.21155943  0.47446654     0.12400
H130        H  0.31339293  0.11432685  0.41683254     0.12400
C131        C  0.42051938  0.19673259  0.23990213    -0.13700
C132        C  0.40979835  0.20614938  0.26767721     0.08400
C133        C  0.37266317  0.20992211  0.27064915    -0.13700
C134        C  0.34694200  0.20512799  0.24607234    -0.13700
C135        C  0.35872797  0.19806707  0.21771948     0.08400
C136        C  0.39561908  0.19331004  0.21509171    -0.13700
H137        H  0.44971986  0.19480487  0.23708152     0.12400
H138        H  0.36406578  0.21746676  0.29195947     0.12400
H139        H  0.31820492  0.20767431  0.24933657     0.12400
H140        H  0.40656589  0.18880024  0.19374970     0.12400
C141        C  0.12946992  0.28616979  0.27090935    -0.13700
C142        C  0.09171084  0.28871283  0.26770185     0.08400
C143        C  0.08122304  0.29805399  0.24001163    -0.13700
C144        C  0.10722535  0.30298489  0.21548980    -0.13700
C145        C  0.14516734  0.30010526  0.21834389     0.08400
C146        C  0.15639095  0.29267590  0.24665885    -0.13700
H147        H  0.13789548  0.27872997  0.29218623     0.12400
H148        H  0.05156553  0.29904821  0.23701737     0.12400
H149        H  0.09640096  0.30739179  0.19418586     0.12400
H150        H  0.18575814  0.29143171  0.25020214     0.12400
C151        C  0.10819964  0.30064318  0.45171775    -0.13700
C152        C  0.14455367  0.34237085  0.44866107     0.08400
C153        C  0.15584405  0.36015465  0.42016997    -0.13700
C154        C  0.12982728  0.33827071  0.39584732    -0.13700
C155        C  0.09277025  0.29754132  0.39924905     0.08400
C156        C  0.08279203  0.27827596  0.42715781    -0.13700
H157        H  0.09804929  0.28602504  0.47325335     0.12400
H158        H  0.18425452  0.39149684  0.41666907     0.12400
H159        H  0.13794511  0.35368621  0.37443340     0.12400
H160        H  0.05375691  0.24723588  0.43030001     0.12400
C161        C  0.30205086  0.16700542  0.77156727    -0.13700
C162        C  0.34203871  0.19878648  0.78353220     0.08400
C163        C  0.36241177  0.24035182  0.77148829    -0.13700
C164        C  0.34417205  0.24983373  0.74765745    -0.13700
C165        C  0.30471159  0.21815439  0.73512642     0.08400
C166        C  0.28348475  0.17662507  0.74750166    -0.13700
H167        H  0.28561674  0.13463007  0.78047345     0.12400
H168        H  0.39257100  0.26585399  0.78065165     0.12400
H169        H  0.36117447  0.28244853  0.73916207     0.12400
H170        H  0.25294636  0.15165048  0.73846034     0.12400
C171        C  0.47649690  0.22101783  0.83186072    -0.13700
C172        C  0.01571890  0.24070767  0.83214925    -0.15200
C173        C  0.22553422  0.30929506  0.75999573    -0.13700
C174        C  0.20628089  0.29987814  0.73195195     0.08400
C175        C  0.16445142  0.29374238  0.72865296    -0.13700
C176        C  0.14145636  0.29538676  0.75317301    -0.13700
C177        C  0.15927231  0.30183978  0.78173983     0.08400
C178        C  0.20210860  0.30986311  0.78473374    -0.13700
H179        H  0.25740609  0.31305920  0.76306392     0.12400
H180        H  0.14896811  0.28614761  0.70715222     0.12400
H181        H  0.10925161  0.29050769  0.74973314     0.12400
H182        H  0.21686436  0.31442502  0.80630324     0.12400
C183        C  0.20496855  0.36885755  0.06276725    -0.13700
C184        C  0.20287054  0.40672871  0.06641276     0.08400
C185        C  0.19681756  0.41882432  0.09474139    -0.13700
C186        C  0.19498869  0.39442448  0.11931329    -0.13700
C187        C  0.19819158  0.35685151  0.11591907     0.08400
C188        C  0.20193065  0.34379749  0.08715790    -0.13700
H189        H  0.21006786  0.35926114  0.04104245     0.12400
H190        H  0.19637009  0.44863810  0.09806507     0.12400
H191        H  0.19293518  0.40617746  0.14101042     0.12400
H192        H  0.20324609  0.31454575  0.08343600     0.12400
C193        C  0.29763494  0.07622570  0.09434176    -0.13700
C194        C  0.29228455  0.08825289  0.06599249     0.08400
C195        C  0.29411293  0.12795742  0.06205483    -0.13700
C196        C  0.30037921  0.15502586  0.08622241    -0.13700
C197        C  0.30351079  0.14228304  0.11504103     0.08400
C198        C  0.30275423  0.10274975  0.11869614    -0.13700
H199        H  0.29504968  0.04508272  0.09787424     0.12400
H200        H  0.28952561  0.13748037  0.04030130     0.12400
H201        H  0.30194351  0.18559395  0.08231209     0.12400
H202        H  0.30414876  0.09120853  0.14046159     0.12400
C203        C  0.14652599  0.39604977  0.92351933    -0.13700
C204        C  0.18779518  0.40575983  0.93357062     0.08400
C205        C  0.20919607  0.38694363  0.91898075    -0.13700
C206        C  0.18962706  0.35908296  0.89479798    -0.13700
C207        C  0.14840738  0.34970701  0.88470864     0.08400
C208        C  0.12721640  0.36859498  0.89940006    -0.13700
H209        H  0.12923776  0.41031867  0.93397122     0.12400
H210        H  0.24102699  0.39386394  0.92615611     0.12400
H211        H  0.20664726  0.34473693  0.88407577     0.12400
H212        H  0.09596240  0.36293089  0.89186471     0.12400
C213        C  0.33340757  0.12285917  0.93710121    -0.13700
C214        C  0.29193361  0.08656154  0.93428334     0.08400
C215        C  0.27129753  0.07640410  0.90668088    -0.13700
C216        C  0.29299598  0.10089863  0.88181343    -0.13700
C217        C  0.33544787  0.13643870  0.88427936     0.08400
C218        C  0.35464102  0.14796304  0.91250212    -0.13700
H219        H  0.34987767  0.13106352  0.95825941     0.12400
H220        H  0.23961527  0.04790875  0.90400059     0.12400
H221        H  0.27726508  0.09067946  0.86049654     0.12400
H222        H  0.38659790  0.17585062  0.91556892     0.12400
O223        O  0.18598533  0.95085288  0.97151874    -0.73300
O224        O  0.23959874  0.54546079  0.03078087    -0.74300
O225        O  0.23531872  0.54147275  0.96796481    -0.62900
O226        O  0.19237349  0.95427323  0.03466001    -0.71300
O227        O  0.25080555  0.94787606  0.02862656    -0.70900
O228        O  0.29790753  0.54203958  0.96967344    -0.62200
O229        O  0.29847753  0.53912633  0.03261352    -0.74700
O230        O  0.24768085  0.95056827  0.96597273    -0.73400
Cu231      Cu  0.21112809  0.99804389  0.00133387     1.04600
Cu232      Cu  0.27588197  0.49481033  0.99913689     1.04300
C233        C  0.20824602  0.93685890  0.95833385     0.92900
C234        C  0.27656873  0.55641032  0.04180325     0.92000
C235        C  0.27406315  0.55559484  0.95865881     0.84100
C236        C  0.21530421  0.93730059  0.04184513     0.90400
C237        C  0.13271006  0.79854531  0.80823683     0.02700
C238        C  0.15234298  0.82404713  0.83355901    -0.13400
C239        C  0.12763061  0.82117063  0.85861636     0.00200
C240        C  0.08256099  0.79252433  0.85808000    -0.11900
C241        C  0.06243339  0.76741599  0.83298817     0.02700
C242        C  0.08744754  0.76998365  0.80834866    -0.11400
H243        H  0.18669249  0.84742388  0.83343572     0.08300
H244        H  0.06292212  0.78991520  0.87713687     0.05900
H245        H  0.07143489  0.74958400  0.78935886     0.05700
C246        C  0.36334740  0.68944525  0.80831031     0.02700
C247        C  0.33953222  0.66633592  0.83319945    -0.13400
C248        C  0.36045134  0.66023411  0.85756207     0.00200
C249        C  0.40576100  0.67737415  0.85641065    -0.11900
C250        C  0.42972996  0.70067365  0.83184625     0.02700
C251        C  0.40852071  0.70630269  0.80785875    -0.11400
H252        H  0.30504366  0.65473484  0.83402438     0.08300
H253        H  0.42265223  0.67268009  0.87458177     0.05900
H254        H  0.42739838  0.72433142  0.78890027     0.05700
O255        O  0.45298460  0.75570729  0.30454671    -0.73300
O256        O  0.04952352  0.80366559  0.36262368    -0.74300
O257        O  0.04440094  0.79926257  0.29993289    -0.62900
O258        O  0.45812268  0.75789205  0.36729781    -0.71300
O259        O  0.45267724  0.69341242  0.36302987    -0.70900
O260        O  0.04850741  0.73959979  0.30444696    -0.62200
O261        O  0.04429943  0.73944673  0.36731211    -0.74700
O262        O  0.45688837  0.69584160  0.30014494    -0.73400
Cu263      Cu  0.00127023  0.78135362  0.33359721     1.04600
Cu264      Cu  0.00054033  0.71479683  0.33373590     1.04300
C265        C  0.44090919  0.71929149  0.29219095     0.92900
C266        C  0.06106580  0.77916439  0.37505414     0.92000
C267        C  0.06044328  0.77571360  0.29205150     0.84100
C268        C  0.44153513  0.71851291  0.37535737     0.90400
C269        C  0.33333149  0.69674848  0.19107183     0.02700
C270        C  0.31241250  0.72135501  0.19004899    -0.13400
C271        C  0.28801042  0.71953033  0.16532767     0.00200
C272        C  0.28496693  0.69368170  0.14103359    -0.11900
C273        C  0.30640216  0.66954985  0.14108982     0.02700
C274        C  0.33012284  0.67113268  0.16635377    -0.11400
H275        H  0.31522318  0.74231598  0.20833119     0.08300
H276        H  0.26523555  0.69193376  0.12232681     0.05900
H277        H  0.34614370  0.65227130  0.16674780     0.05700
C278        C  0.17224793  0.80385050  0.19193874     0.02700
C279        C  0.19599980  0.78200450  0.19076607    -0.13400
C280        C  0.22135943  0.78559976  0.16608922     0.00200
C281        C  0.22256848  0.81042685  0.14196201    -0.11900
C282        C  0.19826972  0.83169670  0.14211721     0.02700
C283        C  0.17384792  0.82864171  0.16741096    -0.11400
H284        H  0.19439154  0.76148089  0.20875365     0.08300
H285        H  0.24273497  0.81327738  0.12318502     0.05900
H286        H  0.15576145  0.84546474  0.16784815     0.05700
O287        O  0.20151953  0.75103806  0.69524442    -0.73300
O288        O  0.25042479  0.70385728  0.63716733    -0.74300
O289        O  0.24809691  0.70598169  0.70012197    -0.62900
O290        O  0.20686646  0.75197016  0.63234887    -0.71300
O291        O  0.26834045  0.81420719  0.63704939    -0.70900
O292        O  0.31125131  0.76688391  0.69793176    -0.62200
O293        O  0.31177608  0.76687771  0.63497738    -0.74700
O294        O  0.26507799  0.81138790  0.70000844    -0.73400
Cu295      Cu  0.22446234  0.72597712  0.66616108     1.04600
Cu296      Cu  0.29125465  0.79194855  0.66751733     1.04300
C297        C  0.22538154  0.78750831  0.70766354     0.92900
C298        C  0.28783081  0.72780278  0.62610591     0.92000
C299        C  0.28688135  0.73029648  0.70972392     0.84100
C300        C  0.23208783  0.79107140  0.62413216     0.90400
C301        C  0.30586251  0.63895057  0.52568152     0.02700
C302        C  0.27936163  0.59362282  0.52488087    -0.13400
C303        C  0.27907149  0.56986257  0.50007770     0.00200
C304        C  0.30497852  0.59125554  0.47564578    -0.11900
C305        C  0.33102573  0.63663890  0.47556262     0.02700
C306        C  0.33127818  0.65997141  0.50080968    -0.11400
H307        H  0.25856015  0.57663013  0.54338523     0.08300
H308        H  0.30519014  0.57228858  0.45694444     0.05900
H309        H  0.35132936  0.69474601  0.50110947     0.05700
C310        C  0.19744970  0.87150684  0.52501462     0.02700
C311        C  0.17466286  0.84753077  0.49989775    -0.13400
C312        C  0.16931724  0.86803511  0.47509729     0.00200
C313        C  0.18770044  0.91334539  0.47571838    -0.11900
C314        C  0.21104013  0.93757104  0.50037984     0.02700
C315        C  0.21522391  0.91665335  0.52502642    -0.11400
H316        H  0.16241721  0.81305986  0.49929798     0.08300
H317        H  0.18381222  0.93000607  0.45713530     0.04700
H318        H  0.23277455  0.93579606  0.54415235     0.05700
C319        C  0.25290917  0.52326678  0.49995014    -0.13700
C320        C  0.23259197  0.98421217  0.50001582    -0.15200
C321        C  0.29736304  0.66886884  0.60519491    -0.13700
C322        C  0.30138398  0.70966024  0.60194501     0.08400
C323        C  0.30988657  0.72865380  0.57399820    -0.13700
C324        C  0.31196522  0.70605148  0.54928265    -0.13700
C325        C  0.30659257  0.66438494  0.55219848     0.08400
C326        C  0.30068522  0.64676126  0.58067818    -0.13700
H327        H  0.29030587  0.65355462  0.62663695     0.12400
H328        H  0.31183257  0.75960829  0.57098394     0.12400
H329        H  0.31568254  0.72052761  0.52778923     0.12400
H330        H  0.29763347  0.61542508  0.58402913     0.12400
C331        C  0.25306255  0.85163274  0.58908506    -0.13700
C332        C  0.22129612  0.81066141  0.59913172     0.08400
C333        C  0.18106751  0.78937789  0.58453763    -0.13700
C334        C  0.17293794  0.80898137  0.56048993    -0.13700
C335        C  0.20498286  0.85006760  0.55057967     0.08400
C336        C  0.24514911  0.87085212  0.56514482    -0.13700
H337        H  0.28468995  0.86891570  0.59945834     0.12400
H338        H  0.15600852  0.75777793  0.59169164     0.12400
H339        H  0.14149908  0.79219272  0.54984364     0.12400
H340        H  0.27102667  0.90186145  0.55773104     0.12400
C341        C  0.26533965  0.74365055  0.16515017    -0.13700
C342        C  0.24566224  0.76311090  0.16539465    -0.15200
C343        C  0.37083066  0.66351426  0.39622801    -0.13700
C344        C  0.41076450  0.70154226  0.39995852     0.08400
C345        C  0.42397347  0.71924656  0.42827189    -0.13700
C346        C  0.39823494  0.69825381  0.45278830    -0.13700
C347        C  0.35812079  0.65970386  0.44935031     0.08400
C348        C  0.34438635  0.64320343  0.42059331    -0.13700
H349        H  0.36044410  0.64919779  0.37446514     0.12400
H350        H  0.45535166  0.74793859  0.43158847     0.12400
H351        H  0.41071192  0.71155949  0.47446662     0.12400
H352        H  0.31339301  0.61432681  0.41683248     0.12400
C353        C  0.42051948  0.69673277  0.23990211    -0.13700
C354        C  0.40979843  0.70614952  0.26767719     0.08400
C355        C  0.37266325  0.70992225  0.27064914    -0.13700
C356        C  0.34694197  0.70512793  0.24607235    -0.13700
C357        C  0.35872793  0.69806698  0.21771949     0.08400
C358        C  0.39561915  0.69331013  0.21509170    -0.13700
H359        H  0.44971998  0.69480507  0.23708150     0.12400
H360        H  0.36406591  0.71746698  0.29195943     0.12400
H361        H  0.31820485  0.70767420  0.24933659     0.12400
H362        H  0.40656597  0.68880036  0.19374974     0.12400
C363        C  0.12946998  0.78616990  0.27090935    -0.13700
C364        C  0.09171094  0.78871302  0.26770186     0.08400
C365        C  0.08122312  0.79805413  0.24001164    -0.13700
C366        C  0.10722534  0.80298483  0.21548979    -0.13700
C367        C  0.14516729  0.80010513  0.21834388     0.08400
C368        C  0.15639093  0.79267584  0.24665884    -0.13700
H369        H  0.13789557  0.77873010  0.29218628     0.12400
H370        H  0.05156567  0.79904846  0.23701739     0.12400
H371        H  0.09640093  0.80739172  0.19418581     0.12400
H372        H  0.18575809  0.79143160  0.25020212     0.12400
C373        C  0.10819967  0.80064329  0.45171776    -0.13700
C374        C  0.14455371  0.84237092  0.44866107     0.08400
C375        C  0.15584412  0.86015468  0.42016995    -0.13700
C376        C  0.12982731  0.83827071  0.39584732    -0.13700
C377        C  0.09277027  0.79754136  0.39924906     0.08400
C378        C  0.08279210  0.77827609  0.42715783    -0.13700
H379        H  0.09804934  0.78602518  0.47325337     0.12400
H380        H  0.18425461  0.89149687  0.41666903     0.12400
H381        H  0.13794515  0.85368622  0.37443328     0.12400
H382        H  0.05375681  0.74723580  0.43030007     0.12400
C383        C  0.30205085  0.66700541  0.77156728    -0.13700
C384        C  0.34203869  0.69878640  0.78353220     0.08400
C385        C  0.36241175  0.74035175  0.77148828    -0.13700
C386        C  0.34417202  0.74983363  0.74765744    -0.13700
C387        C  0.30471157  0.71815431  0.73512641     0.08400
C388        C  0.28348471  0.67662498  0.74750166    -0.13700
H389        H  0.28561658  0.63462977  0.78047356     0.12400
H390        H  0.39257098  0.76585390  0.78065163     0.12400
H391        H  0.36117444  0.78244844  0.73916207     0.12400
H392        H  0.25294636  0.65165041  0.73846034     0.12400
C393        C  0.47649689  0.72101775  0.83186072    -0.13700
C394        C  0.01571889  0.74070756  0.83214926    -0.15200
C395        C  0.22553426  0.80929511  0.75999574    -0.13700
C396        C  0.20628090  0.79987813  0.73195197     0.08400
C397        C  0.16445139  0.79374228  0.72865296    -0.13700
C398        C  0.14145633  0.79538669  0.75317301    -0.13700
C399        C  0.15927232  0.80183983  0.78173982     0.08400
C400        C  0.20210859  0.80986309  0.78473375    -0.13700
H401        H  0.25740611  0.81305930  0.76306392     0.12400
H402        H  0.14896810  0.78614750  0.70715226     0.12400
H403        H  0.10925157  0.79050758  0.74973313     0.12400
H404        H  0.21686432  0.81442488  0.80630326     0.12400
C405        C  0.20496851  0.86885746  0.06276724    -0.13700
C406        C  0.20287054  0.90672865  0.06641275     0.08400
C407        C  0.19681751  0.91882424  0.09474138    -0.13700
C408        C  0.19498866  0.89442442  0.11931328    -0.13700
C409        C  0.19819160  0.85685149  0.11591908     0.08400
C410        C  0.20193062  0.84379741  0.08715790    -0.13700
H411        H  0.21006780  0.85926102  0.04104244     0.12400
H412        H  0.19637001  0.94863799  0.09806506     0.12400
H413        H  0.19293513  0.90617742  0.14101041     0.12400
H414        H  0.20324601  0.81454568  0.08343603     0.12400
C415        C  0.29763489  0.57622562  0.09434175    -0.13700
C416        C  0.29228455  0.58825289  0.06599248     0.08400
C417        C  0.29411292  0.62795743  0.06205482    -0.13700
C418        C  0.30037906  0.65502576  0.08622243    -0.13700
C419        C  0.30351076  0.64228299  0.11504102     0.08400
C420        C  0.30275421  0.60274971  0.11869613    -0.13700
H421        H  0.29504965  0.54508283  0.09787420     0.12400
H422        H  0.28952570  0.63748041  0.04030135     0.12400
H423        H  0.30194325  0.68559396  0.08231209     0.12400
H424        H  0.30414874  0.59120849  0.14046156     0.12400
C425        C  0.14652597  0.89604969  0.92351933    -0.13700
C426        C  0.18779519  0.90575984  0.93357057     0.08400
C427        C  0.20919608  0.88694356  0.91898076    -0.13700
C428        C  0.18962701  0.85908284  0.89479801    -0.13700
C429        C  0.14840735  0.84970691  0.88470865     0.08400
C430        C  0.12721636  0.86859488  0.89940007    -0.13700
H431        H  0.12923772  0.91031858  0.93397123     0.12400
H432        H  0.24102676  0.89386379  0.92615609     0.12400
H433        H  0.20664721  0.84473679  0.88407581     0.12400
H434        H  0.09596242  0.86293081  0.89186471     0.12400
C435        C  0.33340752  0.62285916  0.93710121    -0.13700
C436        C  0.29193357  0.58656147  0.93428333     0.08400
C437        C  0.27129753  0.57640401  0.90668087    -0.13700
C438        C  0.29299595  0.60089854  0.88181341    -0.13700
C439        C  0.33544786  0.63643864  0.88427935     0.08400
C440        C  0.35464095  0.64796294  0.91250211    -0.13700
H441        H  0.34987756  0.63106356  0.95825942     0.12400
H442        H  0.23961525  0.54790863  0.90400059     0.12400
H443        H  0.27726505  0.59067940  0.86049658     0.12400
H444        H  0.38659805  0.67585075  0.91556891     0.12400
O445        O  0.68598531  0.45085294  0.97151875    -0.73300
O446        O  0.73959874  0.04546078  0.03078086    -0.74300
O447        O  0.73531877  0.04147278  0.96796483    -0.62900
O448        O  0.69237354  0.45427332  0.03466002    -0.71300
O449        O  0.75080548  0.44787599  0.02862652    -0.70900
O450        O  0.79790756  0.04203962  0.96967342    -0.62200
O451        O  0.79847753  0.03912636  0.03261352    -0.74700
O452        O  0.74768080  0.45056833  0.96597272    -0.73400
Cu453      Cu  0.71112818  0.49804393  0.00133387     1.04600
Cu454      Cu  0.77588196  0.99481034  0.99913689     1.04300
C455        C  0.70824596  0.43685892  0.95833387     0.92900
C456        C  0.77656874  0.05641033  0.04180326     0.92000
C457        C  0.77406319  0.05559491  0.95865882     0.84100
C458        C  0.71530420  0.43730060  0.04184513     0.90400
C459        C  0.63271008  0.29854527  0.80823683     0.02700
C460        C  0.65234310  0.32404720  0.83355898    -0.13400
C461        C  0.62763072  0.32117068  0.85861635     0.00200
C462        C  0.58256111  0.29252432  0.85808004    -0.11900
C463        C  0.56243343  0.26741611  0.83298817     0.02700
C464        C  0.58744754  0.26998374  0.80834865    -0.11400
H465        H  0.68669231  0.34742374  0.83343567     0.08300
H466        H  0.56292226  0.28991508  0.87713697     0.05900
H467        H  0.57143483  0.24958412  0.78935886     0.05700
C468        C  0.86334735  0.18944531  0.80831031     0.02700
C469        C  0.83953214  0.16633586  0.83319941    -0.13400
C470        C  0.86045132  0.16023408  0.85756203     0.00200
C471        C  0.90576095  0.17737417  0.85641057    -0.11900
C472        C  0.92972993  0.20067366  0.83184620     0.02700
C473        C  0.90852066  0.20630276  0.80785874    -0.11400
H474        H  0.80504364  0.15473476  0.83402435     0.08300
H475        H  0.92265232  0.17268014  0.87458186     0.05900
H476        H  0.92739834  0.22433157  0.78890025     0.05700
O477        O  0.95298445  0.25570722  0.30454671    -0.73300
O478        O  0.54952355  0.30366553  0.36262368    -0.74300
O479        O  0.54440084  0.29926236  0.29993287    -0.62900
O480        O  0.95812258  0.25789202  0.36729780    -0.71300
O481        O  0.95267714  0.19341240  0.36302984    -0.70900
O482        O  0.54850738  0.23959963  0.30444698    -0.62200
O483        O  0.54429948  0.23944668  0.36731210    -0.74700
O484        O  0.95688850  0.19584170  0.30014491    -0.73400
Cu485      Cu  0.50127026  0.28135350  0.33359721     1.04600
Cu486      Cu  0.50054032  0.21479671  0.33373591     1.04300
C487        C  0.94090914  0.21929144  0.29219094     0.92900
C488        C  0.56106585  0.27916435  0.37505413     0.92000
C489        C  0.56044318  0.27571339  0.29205148     0.84100
C490        C  0.94153503  0.21851286  0.37535735     0.90400
C491        C  0.83333157  0.19674864  0.19107181     0.02700
C492        C  0.81241253  0.22135514  0.19004901    -0.13400
C493        C  0.78801048  0.21953044  0.16532766     0.00200
C494        C  0.78496705  0.19368184  0.14103360    -0.11900
C495        C  0.80640219  0.16954993  0.14108982     0.02700
C496        C  0.83012286  0.17113280  0.16635378    -0.11400
H497        H  0.81522311  0.24231593  0.20833114     0.08300
H498        H  0.76523554  0.19193389  0.12232669     0.05900
H499        H  0.84614372  0.15227125  0.16674784     0.05700
C500        C  0.67224796  0.30385056  0.19193875     0.02700
C501        C  0.69599984  0.28200459  0.19076610    -0.13400
C502        C  0.72135945  0.28559981  0.16608924     0.00200
C503        C  0.72256841  0.31042679  0.14196201    -0.11900
C504        C  0.69826976  0.33169674  0.14211719     0.02700
C505        C  0.67384785  0.32864170  0.16741092    -0.11400
H506        H  0.69439162  0.26148106  0.20875371     0.08300
H507        H  0.74273492  0.31327724  0.12318488     0.05900
H508        H  0.65576144  0.34546456  0.16784805     0.05700
O509        O  0.70151950  0.25103811  0.69524436    -0.73300
O510        O  0.75042478  0.20385733  0.63716731    -0.74300
O511        O  0.74809687  0.20598170  0.70012197    -0.62900
O512        O  0.70686646  0.25197024  0.63234889    -0.71300
O513        O  0.76834044  0.31420725  0.63704939    -0.70900
O514        O  0.81125122  0.26688393  0.69793177    -0.62200
O515        O  0.81177609  0.26687771  0.63497740    -0.74700
O516        O  0.76507796  0.31138790  0.70000841    -0.73400
Cu517      Cu  0.72446232  0.22597717  0.66616105     1.04600
Cu518      Cu  0.79125458  0.29194853  0.66751733     1.04300
C519        C  0.72538154  0.28750835  0.70766350     0.92900
C520        C  0.78783082  0.22780282  0.62610589     0.92000
C521        C  0.78688129  0.23029652  0.70972394     0.84100
C522        C  0.73208783  0.29107146  0.62413215     0.90400
C523        C  0.80586239  0.13895050  0.52568154     0.02700
C524        C  0.77936154  0.09362269  0.52488091    -0.13400
C525        C  0.77907153  0.06986253  0.50007771     0.00200
C526        C  0.80497850  0.09125557  0.47564579    -0.11900
C527        C  0.83102571  0.13663896  0.47556265     0.02700
C528        C  0.83127813  0.15997140  0.50080974    -0.11400
H529        H  0.75856020  0.07663010  0.54338507     0.08300
H530        H  0.80519011  0.07228869  0.45694442     0.05900
H531        H  0.85132937  0.19474597  0.50110957     0.05700
C532        C  0.69744966  0.37150682  0.52501462     0.02700
C533        C  0.67466277  0.34753078  0.49989777    -0.13400
C534        C  0.66931713  0.36803506  0.47509731     0.00200
C535        C  0.68770034  0.41334539  0.47571838    -0.11900
C536        C  0.71104008  0.43757102  0.50037983     0.02700
C537        C  0.71522402  0.41665339  0.52502640    -0.11400
H538        H  0.66241707  0.31305975  0.49929800     0.08300
H539        H  0.68381211  0.43000598  0.45713541     0.04700
H540        H  0.73277467  0.43579600  0.54415215     0.05700
C541        C  0.75290913  0.02326673  0.49995012    -0.13700
C542        C  0.73259189  0.48421217  0.50001582    -0.15200
C543        C  0.79736299  0.16886888  0.60519490    -0.13700
C544        C  0.80138400  0.20966030  0.60194500     0.08400
C545        C  0.80988671  0.22865391  0.57399820    -0.13700
C546        C  0.81196519  0.20605148  0.54928265    -0.13700
C547        C  0.80659242  0.16438487  0.55219850     0.08400
C548        C  0.80068506  0.14676122  0.58067820    -0.13700
H549        H  0.79030576  0.15355464  0.62663703     0.12400
H550        H  0.81183278  0.25960836  0.57098393     0.12400
H551        H  0.81568243  0.22052751  0.52778930     0.12400
H552        H  0.79763325  0.11542503  0.58402916     0.12400
C553        C  0.75306250  0.35163274  0.58908504    -0.13700
C554        C  0.72129612  0.31066139  0.59913168     0.08400
C555        C  0.68106750  0.28937784  0.58453761    -0.13700
C556        C  0.67293782  0.30898128  0.56048991    -0.13700
C557        C  0.70498278  0.35006760  0.55057969     0.08400
C558        C  0.74514904  0.37085215  0.56514483    -0.13700
H559        H  0.78468997  0.36891576  0.59945832     0.12400
H560        H  0.65600851  0.25777786  0.59169164     0.12400
H561        H  0.64149930  0.29219277  0.54984373     0.12400
H562        H  0.77102652  0.40186134  0.55773105     0.12400
C563        C  0.76533971  0.24365067  0.16515017    -0.13700
C564        C  0.74566234  0.26311104  0.16539469    -0.15200
C565        C  0.87083063  0.16351423  0.39622802    -0.13700
C566        C  0.91076447  0.20154226  0.39995851     0.08400
C567        C  0.92397355  0.21924647  0.42827187    -0.13700
C568        C  0.89823507  0.19825384  0.45278833    -0.13700
C569        C  0.85812081  0.15970393  0.44935034     0.08400
C570        C  0.84438643  0.14320349  0.42059335    -0.13700
H571        H  0.86044407  0.14919778  0.37446518     0.12400
H572        H  0.95535194  0.24793859  0.43158843     0.12400
H573        H  0.91071202  0.21155947  0.47446658     0.12400
H574        H  0.81339288  0.11432665  0.41683253     0.12400
C575        C  0.92051929  0.19673259  0.23990214    -0.13700
C576        C  0.90979830  0.20614935  0.26767722     0.08400
C577        C  0.87266313  0.20992211  0.27064917    -0.13700
C578        C  0.84694191  0.20512799  0.24607235    -0.13700
C579        C  0.85872794  0.19806707  0.21771948     0.08400
C580        C  0.89561904  0.19331003  0.21509172    -0.13700
H581        H  0.94972000  0.19480486  0.23708149     0.12400
H582        H  0.86406573  0.21746676  0.29195947     0.12400
H583        H  0.81820502  0.20767430  0.24933653     0.12400
H584        H  0.90656585  0.18880025  0.19374972     0.12400
C585        C  0.62946989  0.28616980  0.27090940    -0.13700
C586        C  0.59171083  0.28871284  0.26770185     0.08400
C587        C  0.58122312  0.29805400  0.24001162    -0.13700
C588        C  0.60722542  0.30298489  0.21548982    -0.13700
C589        C  0.64516739  0.30010527  0.21834393     0.08400
C590        C  0.65639096  0.29267591  0.24665892    -0.13700
H591        H  0.63789539  0.27872994  0.29218633     0.12400
H592        H  0.55156538  0.29904824  0.23701730     0.12400
H593        H  0.59640103  0.30739179  0.19418578     0.12400
H594        H  0.68575810  0.29143171  0.25020223     0.12400
C595        C  0.60819961  0.30064318  0.45171776    -0.13700
C596        C  0.64455362  0.34237087  0.44866108     0.08400
C597        C  0.65584400  0.36015468  0.42016998    -0.13700
C598        C  0.62982725  0.33827075  0.39584732    -0.13700
C599        C  0.59277027  0.29754131  0.39924905     0.08400
C600        C  0.58279211  0.27827594  0.42715780    -0.13700
H601        H  0.59804924  0.28602507  0.47325336     0.12400
H602        H  0.68425447  0.39149688  0.41666908     0.12400
H603        H  0.63794506  0.35368625  0.37443340     0.12400
H604        H  0.55375692  0.24723568  0.43029999     0.12400
C605        C  0.80205081  0.16700543  0.77156727    -0.13700
C606        C  0.84203867  0.19878648  0.78353219     0.08400
C607        C  0.86241181  0.24035180  0.77148824    -0.13700
C608        C  0.84417203  0.24983374  0.74765745    -0.13700
C609        C  0.80471154  0.21815440  0.73512644     0.08400
C610        C  0.78348471  0.17662509  0.74750167    -0.13700
H611        H  0.78561669  0.13463008  0.78047343     0.12400
H612        H  0.89257106  0.26585391  0.78065154     0.12400
H613        H  0.86117445  0.28244854  0.73916210     0.12400
H614        H  0.75294632  0.15165049  0.73846034     0.12400
C615        C  0.97649688  0.22101785  0.83186070    -0.13700
C616        C  0.51571893  0.24070771  0.83214926    -0.15200
C617        C  0.72553431  0.30929506  0.75999573    -0.13700
C618        C  0.70628089  0.29987813  0.73195195     0.08400
C619        C  0.66445144  0.29374239  0.72865297    -0.13700
C620        C  0.64145636  0.29538677  0.75317302    -0.13700
C621        C  0.65927234  0.30183977  0.78173983     0.08400
C622        C  0.70210862  0.30986311  0.78473374    -0.13700
H623        H  0.75740583  0.31305914  0.76306389     0.12400
H624        H  0.64896809  0.28614762  0.70715222     0.12400
H625        H  0.60925168  0.29050772  0.74973317     0.12400
H626        H  0.71686446  0.31442503  0.80630324     0.12400
C627        C  0.70496849  0.36885753  0.06276725    -0.13700
C628        C  0.70287051  0.40672871  0.06641276     0.08400
C629        C  0.69681750  0.41882429  0.09474140    -0.13700
C630        C  0.69498868  0.39442448  0.11931329    -0.13700
C631        C  0.69819167  0.35685157  0.11591908     0.08400
C632        C  0.70193064  0.34379750  0.08715790    -0.13700
H633        H  0.71006775  0.35926112  0.04104245     0.12400
H634        H  0.69636999  0.44863807  0.09806508     0.12400
H635        H  0.69293513  0.40617742  0.14101041     0.12400
H636        H  0.70324604  0.31454571  0.08343599     0.12400
C637        C  0.79763490  0.07622572  0.09434176    -0.13700
C638        C  0.79228452  0.08825290  0.06599249     0.08400
C639        C  0.79411286  0.12795741  0.06205483    -0.13700
C640        C  0.80037914  0.15502585  0.08622241    -0.13700
C641        C  0.80351073  0.14228302  0.11504103     0.08400
C642        C  0.80275416  0.10274974  0.11869614    -0.13700
H643        H  0.79504970  0.04508268  0.09787425     0.12400
H644        H  0.78952554  0.13748036  0.04030129     0.12400
H645        H  0.80194345  0.18559394  0.08231208     0.12400
H646        H  0.80414871  0.09120853  0.14046159     0.12400
C647        C  0.64652598  0.39604973  0.92351930    -0.13700
C648        C  0.68779516  0.40575984  0.93357062     0.08400
C649        C  0.70919610  0.38694366  0.91898078    -0.13700
C650        C  0.68962719  0.35908299  0.89479800    -0.13700
C651        C  0.64840749  0.34970700  0.88470863     0.08400
C652        C  0.62721652  0.36859495  0.89940005    -0.13700
H653        H  0.62923773  0.41031860  0.93397117     0.12400
H654        H  0.74102705  0.39386402  0.92615619     0.12400
H655        H  0.70664743  0.34473700  0.88407580     0.12400
H656        H  0.59596228  0.36293079  0.89186460     0.12400
C657        C  0.83340754  0.12285921  0.93710122    -0.13700
C658        C  0.79193359  0.08656155  0.93428334     0.08400
C659        C  0.77129759  0.07640405  0.90668086    -0.13700
C660        C  0.79299600  0.10089863  0.88181342    -0.13700
C661        C  0.83544789  0.13643868  0.88427934     0.08400
C662        C  0.85464101  0.14796304  0.91250212    -0.13700
H663        H  0.84987759  0.13106358  0.95825944     0.12400
H664        H  0.73961533  0.04790860  0.90400054     0.12400
H665        H  0.77726510  0.09067952  0.86049656     0.12400
H666        H  0.88659792  0.17585068  0.91556892     0.12400
O667        O  0.68598530  0.95085289  0.97151874    -0.73300
O668        O  0.73959875  0.54546079  0.03078086    -0.74300
O669        O  0.73531875  0.54147273  0.96796483    -0.62900
O670        O  0.69237351  0.95427324  0.03466000    -0.71300
O671        O  0.75080554  0.94787606  0.02862656    -0.70900
O672        O  0.79790756  0.54203958  0.96967342    -0.62200
O673        O  0.79847753  0.53912634  0.03261352    -0.74700
O674        O  0.74768079  0.95056827  0.96597273    -0.73400
Cu675      Cu  0.71112816  0.99804389  0.00133387     1.04600
Cu676      Cu  0.77588195  0.49481033  0.99913688     1.04300
C677        C  0.70824597  0.93685890  0.95833385     0.92900
C678        C  0.77656874  0.55641032  0.04180325     0.92000
C679        C  0.77406316  0.55559484  0.95865881     0.84100
C680        C  0.71530422  0.93730061  0.04184514     0.90400
C681        C  0.63271007  0.79854530  0.80823682     0.02700
C682        C  0.65234310  0.82404715  0.83355900    -0.13400
C683        C  0.62763070  0.82117061  0.85861635     0.00200
C684        C  0.58256108  0.79252432  0.85808001    -0.11900
C685        C  0.56243342  0.76741603  0.83298818     0.02700
C686        C  0.58744755  0.76998368  0.80834865    -0.11400
H687        H  0.68669233  0.84742366  0.83343571     0.08300
H688        H  0.56292221  0.78991512  0.87713694     0.05900
H689        H  0.57143487  0.74958403  0.78935889     0.05700
C690        C  0.86334735  0.68944525  0.80831031     0.02700
C691        C  0.83953216  0.66633592  0.83319945    -0.13400
C692        C  0.86045127  0.66023412  0.85756207     0.00200
C693        C  0.90576094  0.67737416  0.85641065    -0.11900
C694        C  0.92972992  0.70067367  0.83184626     0.02700
C695        C  0.90852066  0.70630269  0.80785875    -0.11400
H696        H  0.80504359  0.65473484  0.83402438     0.08300
H697        H  0.92265217  0.67268009  0.87458177     0.05900
H698        H  0.92739833  0.72433140  0.78890027     0.05700
O699        O  0.95298450  0.75570729  0.30454671    -0.73300
O700        O  0.54952354  0.80366555  0.36262368    -0.74300
O701        O  0.54440094  0.79926258  0.29993289    -0.62900
O702        O  0.95812259  0.75789207  0.36729780    -0.71300
O703        O  0.95267724  0.69341249  0.36302986    -0.70900
O704        O  0.54850732  0.73959974  0.30444693    -0.62200
O705        O  0.54429952  0.73944669  0.36731208    -0.74700
O706        O  0.95688840  0.69584168  0.30014494    -0.73400
Cu707      Cu  0.50127030  0.78135358  0.33359722     1.04600
Cu708      Cu  0.50054031  0.71479670  0.33373590     1.04300
C709        C  0.94090913  0.71929150  0.29219095     0.92900
C710        C  0.56106585  0.77916435  0.37505412     0.92000
C711        C  0.56044323  0.77571357  0.29205149     0.84100
C712        C  0.94153508  0.71851293  0.37535736     0.90400
C713        C  0.83333150  0.69674851  0.19107181     0.02700
C714        C  0.81241247  0.72135501  0.19004899    -0.13400
C715        C  0.78801038  0.71953031  0.16532768     0.00200
C716        C  0.78496688  0.69368168  0.14103359    -0.11900
C717        C  0.80640211  0.66954983  0.14108982     0.02700
C718        C  0.83012281  0.67113269  0.16635377    -0.11400
H719        H  0.81522314  0.74231593  0.20833119     0.08300
H720        H  0.76523551  0.69193376  0.12232681     0.05900
H721        H  0.84614368  0.65227127  0.16674780     0.05700
C722        C  0.67224792  0.80385049  0.19193873     0.02700
C723        C  0.69599977  0.78200448  0.19076606    -0.13400
C724        C  0.72135942  0.78559975  0.16608921     0.00200
C725        C  0.72256846  0.81042685  0.14196203    -0.11900
C726        C  0.69826975  0.83169675  0.14211721     0.02700
C727        C  0.67384791  0.82864171  0.16741095    -0.11400
H728        H  0.69439149  0.76148088  0.20875365     0.08300
H729        H  0.74273506  0.81327740  0.12318492     0.05900
H730        H  0.65576145  0.84546471  0.16784813     0.05700
O731        O  0.70151949  0.75103811  0.69524433    -0.73300
O732        O  0.75042472  0.70385727  0.63716733    -0.74300
O733        O  0.74809685  0.70598170  0.70012198    -0.62900
O734        O  0.70686642  0.75197016  0.63234886    -0.71300
O735        O  0.76834040  0.81420719  0.63704941    -0.70900
O736        O  0.81125125  0.76688391  0.69793176    -0.62200
O737        O  0.81177601  0.76687771  0.63497737    -0.74700
O738        O  0.76507798  0.81138788  0.70000844    -0.73400
Cu739      Cu  0.72446228  0.72597713  0.66616105     1.04600
Cu740      Cu  0.79125460  0.79194855  0.66751733     1.04300
C741        C  0.72538154  0.78750831  0.70766351     0.92900
C742        C  0.78783074  0.72780278  0.62610591     0.92000
C743        C  0.78688129  0.73029648  0.70972393     0.84100
C744        C  0.73208779  0.79107139  0.62413215     0.90400
C745        C  0.80586245  0.63895058  0.52568151     0.02700
C746        C  0.77936162  0.59362280  0.52488089    -0.13400
C747        C  0.77907156  0.56986257  0.50007771     0.00200
C748        C  0.80497851  0.59125556  0.47564578    -0.11900
C749        C  0.83102571  0.63663893  0.47556261     0.02700
C750        C  0.83127813  0.65997143  0.50080968    -0.11400
H751        H  0.75856020  0.57663016  0.54338517     0.08300
H752        H  0.80519008  0.57228859  0.45694441     0.05900
H753        H  0.85132932  0.69474603  0.50110946     0.05700
C754        C  0.69744968  0.87150683  0.52501461     0.02700
C755        C  0.67466277  0.84753075  0.49989777    -0.13400
C756        C  0.66931716  0.86803507  0.47509730     0.00200
C757        C  0.68770035  0.91334535  0.47571839    -0.11900
C758        C  0.71104009  0.93757100  0.50037983     0.02700
C759        C  0.71522400  0.91665335  0.52502638    -0.11400
H760        H  0.66241711  0.81305986  0.49929801     0.08300
H761        H  0.68381210  0.93000603  0.45713531     0.04700
H762        H  0.73277476  0.93579608  0.54415225     0.05700
C763        C  0.75290915  0.52326678  0.49995014    -0.13700
C764        C  0.73259188  0.98421213  0.50001582    -0.15200
C765        C  0.79736297  0.66886884  0.60519491    -0.13700
C766        C  0.80138391  0.70966024  0.60194501     0.08400
C767        C  0.80988650  0.72865380  0.57399820    -0.13700
C768        C  0.81196515  0.70605148  0.54928265    -0.13700
C769        C  0.80659250  0.66438494  0.55219848     0.08400
C770        C  0.80068515  0.64676126  0.58067818    -0.13700
H771        H  0.79030580  0.65355462  0.62663695     0.12400
H772        H  0.81183250  0.75960829  0.57098394     0.12400
H773        H  0.81568248  0.72052761  0.52778923     0.12400
H774        H  0.79763340  0.61542508  0.58402913     0.12400
C775        C  0.75306250  0.85163271  0.58908503    -0.13700
C776        C  0.72129613  0.81066139  0.59913170     0.08400
C777        C  0.68106749  0.78937789  0.58453763    -0.13700
C778        C  0.67293787  0.80898135  0.56048993    -0.13700
C779        C  0.70498281  0.85006761  0.55057968     0.08400
C780        C  0.74514906  0.87085210  0.56514483    -0.13700
H781        H  0.78469012  0.86891579  0.59945837     0.12400
H782        H  0.65600851  0.75777796  0.59169166     0.12400
H783        H  0.64149919  0.79219278  0.54984370     0.12400
H784        H  0.77102668  0.90186148  0.55773100     0.12400
C785        C  0.76533965  0.74365056  0.16515018    -0.13700
C786        C  0.74566228  0.76311094  0.16539467    -0.15200
C787        C  0.87083066  0.66351428  0.39622801    -0.13700
C788        C  0.91076449  0.70154228  0.39995851     0.08400
C789        C  0.92397360  0.71924654  0.42827189    -0.13700
C790        C  0.89823505  0.69825377  0.45278832    -0.13700
C791        C  0.85812084  0.65970387  0.44935031     0.08400
C792        C  0.84438644  0.64320344  0.42059332    -0.13700
H793        H  0.86044406  0.64919787  0.37446514     0.12400
H794        H  0.95535167  0.74793841  0.43158843     0.12400
H795        H  0.91071204  0.71155943  0.47446664     0.12400
H796        H  0.81339295  0.61432664  0.41683248     0.12400
C797        C  0.92051939  0.69673277  0.23990212    -0.13700
C798        C  0.90979837  0.70614951  0.26767720     0.08400
C799        C  0.87266318  0.70992225  0.27064915    -0.13700
C800        C  0.84694193  0.70512792  0.24607234    -0.13700
C801        C  0.85872790  0.69806698  0.21771949     0.08400
C802        C  0.89561911  0.69331013  0.21509172    -0.13700
H803        H  0.94972012  0.69480506  0.23708150     0.12400
H804        H  0.86406585  0.71746697  0.29195943     0.12400
H805        H  0.81820475  0.70767420  0.24933656     0.12400
H806        H  0.90656593  0.68880035  0.19374969     0.12400
C807        C  0.62946996  0.78616989  0.27090937    -0.13700
C808        C  0.59171092  0.78871301  0.26770186     0.08400
C809        C  0.58122320  0.79805414  0.24001162    -0.13700
C810        C  0.60722539  0.80298483  0.21548980    -0.13700
C811        C  0.64516731  0.80010514  0.21834388     0.08400
C812        C  0.65639092  0.79267583  0.24665886    -0.13700
H813        H  0.63789553  0.77873009  0.29218631     0.12400
H814        H  0.55156551  0.79904849  0.23701732     0.12400
H815        H  0.59640098  0.80739174  0.19418573     0.12400
H816        H  0.68575807  0.79143159  0.25020215     0.12400
C817        C  0.60819958  0.80064324  0.45171777    -0.13700
C818        C  0.64455364  0.84237086  0.44866108     0.08400
C819        C  0.65584405  0.86015466  0.42016997    -0.13700
C820        C  0.62982726  0.83827071  0.39584733    -0.13700
C821        C  0.59277024  0.79754135  0.39924906     0.08400
C822        C  0.58279201  0.77827606  0.42715783    -0.13700
H823        H  0.59804920  0.78602510  0.47325339     0.12400
H824        H  0.68425449  0.89149680  0.41666906     0.12400
H825        H  0.63794512  0.85368625  0.37443330     0.12400
H826        H  0.55375672  0.74723579  0.43030004     0.12400
C827        C  0.80205079  0.66700542  0.77156729    -0.13700
C828        C  0.84203866  0.69878640  0.78353219     0.08400
C829        C  0.86241179  0.74035172  0.77148823    -0.13700
C830        C  0.84417200  0.74983363  0.74765744    -0.13700
C831        C  0.80471152  0.71815432  0.73512642     0.08400
C832        C  0.78348466  0.67662499  0.74750167    -0.13700
H833        H  0.78561650  0.63462980  0.78047358     0.12400
H834        H  0.89257104  0.76585382  0.78065152     0.12400
H835        H  0.86117442  0.78244845  0.73916209     0.12400
H836        H  0.75294632  0.65165044  0.73846035     0.12400
C837        C  0.97649686  0.72101776  0.83186072    -0.13700
C838        C  0.51571892  0.74070760  0.83214927    -0.15200
C839        C  0.72553434  0.80929510  0.75999573    -0.13700
C840        C  0.70628088  0.79987808  0.73195196     0.08400
C841        C  0.66445141  0.79374228  0.72865297    -0.13700
C842        C  0.64145634  0.79538670  0.75317302    -0.13700
C843        C  0.65927235  0.80183982  0.78173982     0.08400
C844        C  0.70210861  0.80986308  0.78473374    -0.13700
H845        H  0.75740585  0.81305925  0.76306387     0.12400
H846        H  0.64896808  0.78614751  0.70715226     0.12400
H847        H  0.60925165  0.79050762  0.74973316     0.12400
H848        H  0.71686442  0.81442490  0.80630325     0.12400
C849        C  0.70496847  0.86885749  0.06276724    -0.13700
C850        C  0.70287051  0.90672869  0.06641275     0.08400
C851        C  0.69681745  0.91882425  0.09474138    -0.13700
C852        C  0.69498859  0.89442444  0.11931329    -0.13700
C853        C  0.69819161  0.85685154  0.11591909     0.08400
C854        C  0.70193065  0.84379754  0.08715791    -0.13700
H855        H  0.71006773  0.85926107  0.04104244     0.12400
H856        H  0.69636995  0.94863802  0.09806506     0.12400
H857        H  0.69293505  0.90617743  0.14101043     0.12400
H858        H  0.70324613  0.81454561  0.08343601     0.12400
C859        C  0.79763486  0.57622564  0.09434175    -0.13700
C860        C  0.79228452  0.58825288  0.06599248     0.08400
C861        C  0.79411290  0.62795743  0.06205482    -0.13700
C862        C  0.80037915  0.65502578  0.08622242    -0.13700
C863        C  0.80351073  0.64228299  0.11504102     0.08400
C864        C  0.80275413  0.60274968  0.11869614    -0.13700
H865        H  0.79504966  0.54508277  0.09787421     0.12400
H866        H  0.78952563  0.63748038  0.04030135     0.12400
H867        H  0.80194343  0.68559416  0.08231207     0.12400
H868        H  0.80414865  0.59120847  0.14046157     0.12400
C869        C  0.64652596  0.89604966  0.92351930    -0.13700
C870        C  0.68779518  0.90575984  0.93357057     0.08400
C871        C  0.70919607  0.88694358  0.91898078    -0.13700
C872        C  0.68962714  0.85908287  0.89479803    -0.13700
C873        C  0.64840746  0.84970690  0.88470865     0.08400
C874        C  0.62721648  0.86859485  0.89940005    -0.13700
H875        H  0.62923769  0.91031852  0.93397118     0.12400
H876        H  0.74102701  0.89386392  0.92615621     0.12400
H877        H  0.70664737  0.84473685  0.88407584     0.12400
H878        H  0.59596230  0.86293071  0.89186460     0.12400
C879        C  0.83340746  0.62285917  0.93710121    -0.13700
C880        C  0.79193353  0.58656148  0.93428333     0.08400
C881        C  0.77129744  0.57640397  0.90668087    -0.13700
C882        C  0.79299588  0.60089854  0.88181341    -0.13700
C883        C  0.83544779  0.63643864  0.88427935     0.08400
C884        C  0.85464088  0.64796295  0.91250210    -0.13700
H885        H  0.84987750  0.63106357  0.95825942     0.12400
H886        H  0.73961534  0.54790869  0.90400059     0.12400
H887        H  0.77726498  0.59067938  0.86049658     0.12400
H888        H  0.88659798  0.67585075  0.91556891     0.12400
loop_ 
_geom_bond_atom_site_label_1 
_geom_bond_atom_site_label_2 
_geom_bond_distance 
_geom_bond_site_symmetry_2 
_ccdc_geom_bond_type 
O1           Cu9   1.982   1_556  S
O1           C11   1.275       .  A
O2         Cu231   1.982   1_545  S
O2           C12   1.273       .  A
O3         Cu231   2.031   1_546  S
O3           C13   1.280       .  A
O4           Cu9   2.038       .  S
O4           C14   1.282       .  A
O5         Cu232   1.981   1_554  S
O5           C14   1.273       .  A
O6          Cu10   1.987   1_545  S
O6           C13   1.274       .  A
O7          Cu10   2.036   1_544  S
O7           C12   1.281       .  A
O8         Cu232   2.036       .  S
O8           C11   1.282       .  A
Cu9         O224   1.982       .  S
Cu9         O225   2.031   1_554  S
Cu9        Cu232   2.368   1_554  S
Cu10        O227   1.981   1_556  S
Cu10        O230   2.036       .  S
Cu10       Cu231   2.368   1_556  S
C11         C204   1.482       .  S
C12         C194   1.468       .  S
C13         C214   1.469       .  S
C14         C184   1.469       .  S
C15         C177   1.494       .  S
C15          C16   1.409       .  A
C15          C20   1.412       .  A
C16          C17   1.406       .  A
C16          H21   1.082       .  S
C17         C207   1.488       .  S
C17          C18   1.407       .  A
C18          C19   1.398       .  A
C18          H22   1.084       .  S
C19          C20   1.400       .  A
C19         C172   1.446       .  S
C20          H23   1.083       .  S
C24         C162   1.487       .  S
C24          C25   1.407       .  A
C24          C29   1.408       .  A
C25          C26   1.411       .  A
C25          H30   1.083       .  S
C26         C217   1.493       .  S
C26          C27   1.412       .  A
C27          C28   1.398       .  A
C27          H31   1.083       .  S
C28          C29   1.397       .  A
C28         C171   1.446       .  S
C29          H32   1.084       .  S
O33        Cu485   1.986       .  S
O33          C43   1.274       .  A
O34         Cu41   1.985       .  S
O34          C44   1.274       .  A
O35         Cu41   2.027       .  S
O35          C45   1.280       .  A
O36        Cu485   2.027       .  S
O36          C46   1.280       .  A
O37        Cu486   1.987       .  S
O37          C46   1.274       .  A
O38         Cu42   1.988       .  S
O38          C45   1.274       .  A
O39         Cu42   2.033       .  S
O39          C44   1.281       .  A
O40        Cu486   2.032       .  S
O40          C43   1.281       .  A
Cu41        O477   1.986   1_455  S
Cu41        O480   2.027   1_455  S
Cu41        Cu42   2.367       .  S
Cu42        O481   1.987   1_455  S
Cu42        O484   2.032   1_455  S
C43         C132   1.469       .  S
C44         C155   1.469       .  S
C45         C142   1.467       .  S
C46         C122   1.465       .  S
C47         C135   1.496       .  S
C47          C48   1.410       .  A
C47          C52   1.408       .  A
C48          C49   1.400       .  A
C48          H53   1.083       .  S
C49          C50   1.400       .  A
C49         C119   1.447       .  S
C50          C51   1.410       .  A
C50          H54   1.083       .  S
C51         C197   1.495       .  S
C51          C52   1.408       .  A
C52          H55   1.080       .  S
C56         C145   1.498       .  S
C56          C57   1.411       .  A
C56          C61   1.409       .  A
C57          C58   1.400       .  A
C57          H62   1.082       .  S
C58          C59   1.400       .  A
C58         C120   1.447       .  S
C59          C60   1.410       .  A
C59          H63   1.083       .  S
C60         C187   1.495       .  S
C60          C61   1.407       .  A
C61          H64   1.080       .  S
O65         Cu73   1.978       .  S
O65          C75   1.273       .  A
O66         Cu73   1.978       .  S
O66          C76   1.273       .  A
O67         Cu73   2.052       .  S
O67          C77   1.284       .  A
O68         Cu73   2.052       .  S
O68          C78   1.284       .  A
O69         Cu74   1.969       .  S
O69          C78   1.273       .  A
O70         Cu74   1.967       .  S
O70          C77   1.273       .  A
O71         Cu74   2.034       .  S
O71          C76   1.281       .  A
O72         Cu74   2.035       .  S
O72          C75   1.281       .  A
Cu73        Cu74   2.368       .  S
C75         C174   1.469       .  S
C76         C100   1.466       .  S
C77         C165   1.484       .  S
C78         C110   1.484       .  S
C79         C103   1.493       .  S
C79          C80   1.409       .  A
C79          C84   1.406       .  A
C80          C81   1.400       .  A
C80          H85   1.083       .  S
C81          C82   1.400       .  A
C81          C97   1.445       .  S
C82          C83   1.409       .  A
C82          H86   1.083       .  S
C83         C125   1.494       .  S
C83          C84   1.407       .  A
C84          H87   1.080       .  S
C88         C113   1.490       .  S
C88          C89   1.407       .  A
C88          C93   1.408       .  A
C89          C90   1.410       .  A
C89          H94   1.082       .  S
C90         C152   1.493       .  S
C90          C91   1.411       .  A
C91          C92   1.399       .  A
C91          H95   1.083       .  S
C92          C93   1.397       .  A
C92          C98   1.445       .  S
C93          H96   1.084       .  S
C97         C320   1.209   1_545  T
C98         C319   1.209       .  T
C99         C100   1.401       .  A
C99         C104   1.396       .  A
C99         H105   1.083       .  S
C100        C101   1.399       .  A
C101        C102   1.398       .  A
C101        H106   1.084       .  S
C102        C103   1.411       .  A
C102        H107   1.082       .  S
C103        C104   1.408       .  A
C104        H108   1.082       .  S
C109        C110   1.407       .  A
C109        C114   1.390       .  A
C109        H115   1.083       .  S
C110        C111   1.405       .  A
C111        C112   1.406       .  A
C111        H116   1.083       .  S
C112        C113   1.411       .  A
C112        H117   1.083       .  S
C113        C114   1.402       .  A
C114        H118   1.083       .  S
C119        C120   1.210       .  T
C121        C122   1.401       .  A
C121        C126   1.397       .  A
C121        H127   1.083       .  S
C122        C123   1.399       .  A
C123        C124   1.398       .  A
C123        H128   1.084       .  S
C124        C125   1.411       .  A
C124        H129   1.082       .  S
C125        C126   1.409       .  A
C126        H130   1.082       .  S
C131        C132   1.400       .  A
C131        C136   1.399       .  A
C131        H137   1.083       .  S
C132        C133   1.401       .  A
C133        C134   1.397       .  A
C133        H138   1.083       .  S
C134        C135   1.409       .  A
C134        H139   1.082       .  S
C135        C136   1.412       .  A
C136        H140   1.081       .  S
C141        C142   1.401       .  A
C141        C146   1.397       .  A
C141        H147   1.083       .  S
C142        C143   1.399       .  A
C143        C144   1.398       .  A
C143        H148   1.084       .  S
C144        C145   1.412       .  A
C144        H149   1.081       .  S
C145        C146   1.410       .  A
C146        H150   1.082       .  S
C151        C152   1.410       .  A
C151        C156   1.401       .  A
C151        H157   1.082       .  S
C152        C153   1.408       .  A
C153        C154   1.396       .  A
C153        H158   1.082       .  S
C154        C155   1.401       .  A
C154        H159   1.083       .  S
C155        C156   1.401       .  A
C156        H160   1.083       .  S
C161        C162   1.410       .  A
C161        C166   1.407       .  A
C161        H167   1.083       .  S
C162        C163   1.401       .  A
C163        C164   1.390       .  A
C163        H168   1.083       .  S
C164        C165   1.407       .  A
C164        H169   1.083       .  S
C165        C166   1.406       .  A
C166        H170   1.083       .  S
C171        C616   1.209       .  T
C172        C615   1.209   1_455  T
C173        C174   1.401       .  A
C173        C178   1.401       .  A
C173        H179   1.083       .  S
C174        C175   1.401       .  A
C175        C176   1.396       .  A
C175        H180   1.083       .  S
C176        C177   1.408       .  A
C176        H181   1.082       .  S
C177        C178   1.411       .  A
C178        H182   1.082       .  S
C183        C184   1.402       .  A
C183        C188   1.397       .  A
C183        H189   1.083       .  S
C184        C185   1.400       .  A
C185        C186   1.400       .  A
C185        H190   1.084       .  S
C186        C187   1.411       .  A
C186        H191   1.082       .  S
C187        C188   1.408       .  A
C188        H192   1.082       .  S
C193        C194   1.400       .  A
C193        C198   1.400       .  A
C193        H199   1.084       .  S
C194        C195   1.401       .  A
C195        C196   1.397       .  A
C195        H200   1.084       .  S
C196        C197   1.408       .  A
C196        H201   1.082       .  S
C197        C198   1.411       .  A
C198        H202   1.082       .  S
C203        C204   1.407       .  A
C203        C208   1.393       .  A
C203        H209   1.083       .  S
C204        C205   1.405       .  A
C205        C206   1.403       .  A
C205        H210   1.083       .  S
C206        C207   1.409       .  A
C206        H211   1.083       .  S
C207        C208   1.403       .  A
C208        H212   1.083       .  S
C213        C214   1.400       .  A
C213        C218   1.396       .  A
C213        H219   1.083       .  S
C214        C215   1.401       .  A
C215        C216   1.401       .  A
C215        H220   1.083       .  S
C216        C217   1.410       .  A
C216        H221   1.082       .  S
C217        C218   1.408       .  A
C218        H222   1.082       .  S
O223       Cu231   1.982   1_556  S
O223        C233   1.275       .  A
O224        C234   1.273       .  A
O225        C235   1.280       .  A
O226       Cu231   2.038       .  S
O226        C236   1.282       .  A
O227        C236   1.273       .  A
O228       Cu232   1.987       .  S
O228        C235   1.274       .  A
O229       Cu232   2.036   1_554  S
O229        C234   1.281       .  A
O230        C233   1.282       .  A
C233        C426   1.482       .  S
C234        C416   1.468       .  S
C235        C436   1.469       .  S
C236        C406   1.469       .  S
C237        C399   1.494       .  S
C237        C238   1.409       .  A
C237        C242   1.412       .  A
C238        C239   1.406       .  A
C238        H243   1.082       .  S
C239        C429   1.488       .  S
C239        C240   1.407       .  A
C240        C241   1.398       .  A
C240        H244   1.084       .  S
C241        C242   1.400       .  A
C241        C394   1.446       .  S
C242        H245   1.083       .  S
C246        C384   1.487       .  S
C246        C247   1.407       .  A
C246        C251   1.408       .  A
C247        C248   1.411       .  A
C247        H252   1.083       .  S
C248        C439   1.493       .  S
C248        C249   1.412       .  A
C249        C250   1.398       .  A
C249        H253   1.083       .  S
C250        C251   1.397       .  A
C250        C393   1.446       .  S
C251        H254   1.084       .  S
O255       Cu707   1.986       .  S
O255        C265   1.274       .  A
O256       Cu263   1.985       .  S
O256        C266   1.274       .  A
O257       Cu263   2.027       .  S
O257        C267   1.280       .  A
O258       Cu707   2.027       .  S
O258        C268   1.280       .  A
O259       Cu708   1.987       .  S
O259        C268   1.274       .  A
O260       Cu264   1.988       .  S
O260        C267   1.274       .  A
O261       Cu264   2.033       .  S
O261        C266   1.281       .  A
O262       Cu708   2.032       .  S
O262        C265   1.281       .  A
Cu263       O699   1.986   1_455  S
Cu263       O702   2.027   1_455  S
Cu263      Cu264   2.367       .  S
Cu264       O703   1.987   1_455  S
Cu264       O706   2.032   1_455  S
C265        C354   1.469       .  S
C266        C377   1.469       .  S
C267        C364   1.467       .  S
C268        C344   1.465       .  S
C269        C357   1.496       .  S
C269        C270   1.410       .  A
C269        C274   1.408       .  A
C270        C271   1.400       .  A
C270        H275   1.083       .  S
C271        C272   1.400       .  A
C271        C341   1.447       .  S
C272        C273   1.410       .  A
C272        H276   1.083       .  S
C273        C419   1.495       .  S
C273        C274   1.408       .  A
C274        H277   1.080       .  S
C278        C367   1.498       .  S
C278        C279   1.411       .  A
C278        C283   1.409       .  A
C279        C280   1.400       .  A
C279        H284   1.082       .  S
C280        C281   1.400       .  A
C280        C342   1.447       .  S
C281        C282   1.410       .  A
C281        H285   1.083       .  S
C282        C409   1.495       .  S
C282        C283   1.407       .  A
C283        H286   1.080       .  S
O287       Cu295   1.978       .  S
O287        C297   1.273       .  A
O288       Cu295   1.978       .  S
O288        C298   1.273       .  A
O289       Cu295   2.052       .  S
O289        C299   1.284       .  A
O290       Cu295   2.052       .  S
O290        C300   1.284       .  A
O291       Cu296   1.969       .  S
O291        C300   1.273       .  A
O292       Cu296   1.967       .  S
O292        C299   1.273       .  A
O293       Cu296   2.034       .  S
O293        C298   1.281       .  A
O294       Cu296   2.035       .  S
O294        C297   1.281       .  A
Cu295      Cu296   2.368       .  S
C297        C396   1.469       .  S
C298        C322   1.466       .  S
C299        C387   1.484       .  S
C300        C332   1.484       .  S
C301        C325   1.493       .  S
C301        C302   1.409       .  A
C301        C306   1.406       .  A
C302        C303   1.400       .  A
C302        H307   1.083       .  S
C303        C304   1.400       .  A
C303        C319   1.445       .  S
C304        C305   1.409       .  A
C304        H308   1.083       .  S
C305        C347   1.494       .  S
C305        C306   1.407       .  A
C306        H309   1.080       .  S
C310        C335   1.490       .  S
C310        C311   1.407       .  A
C310        C315   1.408       .  A
C311        C312   1.410       .  A
C311        H316   1.082       .  S
C312        C374   1.493       .  S
C312        C313   1.411       .  A
C313        C314   1.399       .  A
C313        H317   1.083       .  S
C314        C315   1.397       .  A
C314        C320   1.445       .  S
C315        H318   1.084       .  S
C321        C322   1.401       .  A
C321        C326   1.396       .  A
C321        H327   1.083       .  S
C322        C323   1.399       .  A
C323        C324   1.398       .  A
C323        H328   1.084       .  S
C324        C325   1.411       .  A
C324        H329   1.082       .  S
C325        C326   1.408       .  A
C326        H330   1.082       .  S
C331        C332   1.407       .  A
C331        C336   1.390       .  A
C331        H337   1.083       .  S
C332        C333   1.405       .  A
C333        C334   1.406       .  A
C333        H338   1.083       .  S
C334        C335   1.411       .  A
C334        H339   1.083       .  S
C335        C336   1.402       .  A
C336        H340   1.083       .  S
C341        C342   1.210       .  T
C343        C344   1.401       .  A
C343        C348   1.397       .  A
C343        H349   1.083       .  S
C344        C345   1.399       .  A
C345        C346   1.398       .  A
C345        H350   1.084       .  S
C346        C347   1.411       .  A
C346        H351   1.082       .  S
C347        C348   1.409       .  A
C348        H352   1.082       .  S
C353        C354   1.400       .  A
C353        C358   1.399       .  A
C353        H359   1.083       .  S
C354        C355   1.401       .  A
C355        C356   1.397       .  A
C355        H360   1.083       .  S
C356        C357   1.409       .  A
C356        H361   1.082       .  S
C357        C358   1.412       .  A
C358        H362   1.081       .  S
C363        C364   1.401       .  A
C363        C368   1.397       .  A
C363        H369   1.083       .  S
C364        C365   1.399       .  A
C365        C366   1.398       .  A
C365        H370   1.084       .  S
C366        C367   1.412       .  A
C366        H371   1.081       .  S
C367        C368   1.410       .  A
C368        H372   1.082       .  S
C373        C374   1.410       .  A
C373        C378   1.401       .  A
C373        H379   1.082       .  S
C374        C375   1.408       .  A
C375        C376   1.396       .  A
C375        H380   1.082       .  S
C376        C377   1.401       .  A
C376        H381   1.083       .  S
C377        C378   1.401       .  A
C378        H382   1.083       .  S
C383        C384   1.410       .  A
C383        C388   1.407       .  A
C383        H389   1.083       .  S
C384        C385   1.401       .  A
C385        C386   1.390       .  A
C385        H390   1.083       .  S
C386        C387   1.407       .  A
C386        H391   1.083       .  S
C387        C388   1.406       .  A
C388        H392   1.083       .  S
C393        C838   1.209       .  T
C394        C837   1.209   1_455  T
C395        C396   1.401       .  A
C395        C400   1.401       .  A
C395        H401   1.083       .  S
C396        C397   1.401       .  A
C397        C398   1.396       .  A
C397        H402   1.083       .  S
C398        C399   1.408       .  A
C398        H403   1.082       .  S
C399        C400   1.411       .  A
C400        H404   1.082       .  S
C405        C406   1.402       .  A
C405        C410   1.397       .  A
C405        H411   1.083       .  S
C406        C407   1.400       .  A
C407        C408   1.400       .  A
C407        H412   1.084       .  S
C408        C409   1.411       .  A
C408        H413   1.082       .  S
C409        C410   1.408       .  A
C410        H414   1.082       .  S
C415        C416   1.400       .  A
C415        C420   1.400       .  A
C415        H421   1.084       .  S
C416        C417   1.401       .  A
C417        C418   1.397       .  A
C417        H422   1.083       .  S
C418        C419   1.408       .  A
C418        H423   1.082       .  S
C419        C420   1.411       .  A
C420        H424   1.082       .  S
C425        C426   1.407       .  A
C425        C430   1.393       .  A
C425        H431   1.083       .  S
C426        C427   1.405       .  A
C427        C428   1.403       .  A
C427        H432   1.083       .  S
C428        C429   1.409       .  A
C428        H433   1.083       .  S
C429        C430   1.403       .  A
C430        H434   1.083       .  S
C435        C436   1.400       .  A
C435        C440   1.396       .  A
C435        H441   1.083       .  S
C436        C437   1.401       .  A
C437        C438   1.401       .  A
C437        H442   1.083       .  S
C438        C439   1.410       .  A
C438        H443   1.082       .  S
C439        C440   1.408       .  A
C440        H444   1.082       .  S
O445       Cu453   1.982   1_556  S
O445        C455   1.275       .  A
O446       Cu675   1.982   1_545  S
O446        C456   1.273       .  A
O447       Cu675   2.031   1_546  S
O447        C457   1.280       .  A
O448       Cu453   2.038       .  S
O448        C458   1.282       .  A
O449       Cu676   1.981   1_554  S
O449        C458   1.273       .  A
O450       Cu454   1.987   1_545  S
O450        C457   1.274       .  A
O451       Cu454   2.036   1_544  S
O451        C456   1.281       .  A
O452       Cu676   2.036       .  S
O452        C455   1.282       .  A
Cu453       O668   1.982       .  S
Cu453       O669   2.031   1_554  S
Cu453      Cu676   2.368   1_554  S
Cu454       O671   1.981   1_556  S
Cu454       O674   2.036       .  S
Cu454      Cu675   2.368   1_556  S
C455        C648   1.482       .  S
C456        C638   1.468       .  S
C457        C658   1.469       .  S
C458        C628   1.469       .  S
C459        C621   1.494       .  S
C459        C460   1.409       .  A
C459        C464   1.412       .  A
C460        C461   1.406       .  A
C460        H465   1.082       .  S
C461        C651   1.488       .  S
C461        C462   1.407       .  A
C462        C463   1.398       .  A
C462        H466   1.084       .  S
C463        C464   1.400       .  A
C463        C616   1.446       .  S
C464        H467   1.083       .  S
C468        C606   1.487       .  S
C468        C469   1.407       .  A
C468        C473   1.408       .  A
C469        C470   1.411       .  A
C469        H474   1.083       .  S
C470        C661   1.493       .  S
C470        C471   1.412       .  A
C471        C472   1.398       .  A
C471        H475   1.083       .  S
C472        C473   1.397       .  A
C472        C615   1.446       .  S
C473        H476   1.084       .  S
O477        C487   1.274       .  A
O478       Cu485   1.985       .  S
O478        C488   1.274       .  A
O479       Cu485   2.027       .  S
O479        C489   1.280       .  A
O480        C490   1.280       .  A
O481        C490   1.274       .  A
O482       Cu486   1.988       .  S
O482        C489   1.274       .  A
O483       Cu486   2.033       .  S
O483        C488   1.281       .  A
O484        C487   1.281       .  A
Cu485      Cu486   2.367       .  S
C487        C576   1.469       .  S
C488        C599   1.469       .  S
C489        C586   1.467       .  S
C490        C566   1.465       .  S
C491        C579   1.496       .  S
C491        C492   1.410       .  A
C491        C496   1.408       .  A
C492        C493   1.400       .  A
C492        H497   1.083       .  S
C493        C494   1.400       .  A
C493        C563   1.447       .  S
C494        C495   1.410       .  A
C494        H498   1.083       .  S
C495        C641   1.495       .  S
C495        C496   1.408       .  A
C496        H499   1.080       .  S
C500        C589   1.498       .  S
C500        C501   1.411       .  A
C500        C505   1.409       .  A
C501        C502   1.400       .  A
C501        H506   1.082       .  S
C502        C503   1.400       .  A
C502        C564   1.447       .  S
C503        C504   1.410       .  A
C503        H507   1.083       .  S
C504        C631   1.495       .  S
C504        C505   1.407       .  A
C505        H508   1.080       .  S
O509       Cu517   1.978       .  S
O509        C519   1.273       .  A
O510       Cu517   1.978       .  S
O510        C520   1.273       .  A
O511       Cu517   2.052       .  S
O511        C521   1.284       .  A
O512       Cu517   2.052       .  S
O512        C522   1.284       .  A
O513       Cu518   1.969       .  S
O513        C522   1.273       .  A
O514       Cu518   1.967       .  S
O514        C521   1.273       .  A
O515       Cu518   2.034       .  S
O515        C520   1.281       .  A
O516       Cu518   2.035       .  S
O516        C519   1.281       .  A
Cu517      Cu518   2.368       .  S
C519        C618   1.469       .  S
C520        C544   1.466       .  S
C521        C609   1.484       .  S
C522        C554   1.484       .  S
C523        C547   1.493       .  S
C523        C524   1.409       .  A
C523        C528   1.406       .  A
C524        C525   1.400       .  A
C524        H529   1.083       .  S
C525        C526   1.400       .  A
C525        C541   1.445       .  S
C526        C527   1.409       .  A
C526        H530   1.083       .  S
C527        C569   1.494       .  S
C527        C528   1.407       .  A
C528        H531   1.080       .  S
C532        C557   1.490       .  S
C532        C533   1.407       .  A
C532        C537   1.408       .  A
C533        C534   1.410       .  A
C533        H538   1.082       .  S
C534        C596   1.493       .  S
C534        C535   1.411       .  A
C535        C536   1.399       .  A
C535        H539   1.083       .  S
C536        C537   1.397       .  A
C536        C542   1.445       .  S
C537        H540   1.084       .  S
C541        C764   1.209   1_545  T
C542        C763   1.209       .  T
C543        C544   1.401       .  A
C543        C548   1.396       .  A
C543        H549   1.083       .  S
C544        C545   1.399       .  A
C545        C546   1.398       .  A
C545        H550   1.084       .  S
C546        C547   1.411       .  A
C546        H551   1.082       .  S
C547        C548   1.408       .  A
C548        H552   1.082       .  S
C553        C554   1.407       .  A
C553        C558   1.390       .  A
C553        H559   1.083       .  S
C554        C555   1.405       .  A
C555        C556   1.406       .  A
C555        H560   1.083       .  S
C556        C557   1.411       .  A
C556        H561   1.083       .  S
C557        C558   1.402       .  A
C558        H562   1.083       .  S
C563        C564   1.210       .  T
C565        C566   1.401       .  A
C565        C570   1.397       .  A
C565        H571   1.083       .  S
C566        C567   1.399       .  A
C567        C568   1.398       .  A
C567        H572   1.084       .  S
C568        C569   1.411       .  A
C568        H573   1.082       .  S
C569        C570   1.409       .  A
C570        H574   1.082       .  S
C575        C576   1.400       .  A
C575        C580   1.399       .  A
C575        H581   1.083       .  S
C576        C577   1.401       .  A
C577        C578   1.397       .  A
C577        H582   1.083       .  S
C578        C579   1.409       .  A
C578        H583   1.082       .  S
C579        C580   1.412       .  A
C580        H584   1.081       .  S
C585        C586   1.401       .  A
C585        C590   1.397       .  A
C585        H591   1.083       .  S
C586        C587   1.399       .  A
C587        C588   1.398       .  A
C587        H592   1.084       .  S
C588        C589   1.412       .  A
C588        H593   1.081       .  S
C589        C590   1.410       .  A
C590        H594   1.082       .  S
C595        C596   1.410       .  A
C595        C600   1.401       .  A
C595        H601   1.082       .  S
C596        C597   1.408       .  A
C597        C598   1.396       .  A
C597        H602   1.082       .  S
C598        C599   1.401       .  A
C598        H603   1.083       .  S
C599        C600   1.401       .  A
C600        H604   1.083       .  S
C605        C606   1.410       .  A
C605        C610   1.407       .  A
C605        H611   1.083       .  S
C606        C607   1.401       .  A
C607        C608   1.390       .  A
C607        H612   1.083       .  S
C608        C609   1.407       .  A
C608        H613   1.083       .  S
C609        C610   1.406       .  A
C610        H614   1.083       .  S
C617        C618   1.401       .  A
C617        C622   1.401       .  A
C617        H623   1.083       .  S
C618        C619   1.401       .  A
C619        C620   1.396       .  A
C619        H624   1.083       .  S
C620        C621   1.408       .  A
C620        H625   1.082       .  S
C621        C622   1.411       .  A
C622        H626   1.082       .  S
C627        C628   1.402       .  A
C627        C632   1.397       .  A
C627        H633   1.083       .  S
C628        C629   1.400       .  A
C629        C630   1.400       .  A
C629        H634   1.084       .  S
C630        C631   1.411       .  A
C630        H635   1.082       .  S
C631        C632   1.408       .  A
C632        H636   1.082       .  S
C637        C638   1.400       .  A
C637        C642   1.400       .  A
C637        H643   1.084       .  S
C638        C639   1.401       .  A
C639        C640   1.397       .  A
C639        H644   1.084       .  S
C640        C641   1.408       .  A
C640        H645   1.082       .  S
C641        C642   1.411       .  A
C642        H646   1.082       .  S
C647        C648   1.407       .  A
C647        C652   1.393       .  A
C647        H653   1.083       .  S
C648        C649   1.405       .  A
C649        C650   1.403       .  A
C649        H654   1.083       .  S
C650        C651   1.409       .  A
C650        H655   1.083       .  S
C651        C652   1.403       .  A
C652        H656   1.083       .  S
C657        C658   1.400       .  A
C657        C662   1.396       .  A
C657        H663   1.083       .  S
C658        C659   1.401       .  A
C659        C660   1.401       .  A
C659        H664   1.083       .  S
C660        C661   1.410       .  A
C660        H665   1.082       .  S
C661        C662   1.408       .  A
C662        H666   1.082       .  S
O667       Cu675   1.982   1_556  S
O667        C677   1.275       .  A
O668        C678   1.273       .  A
O669        C679   1.280       .  A
O670       Cu675   2.038       .  S
O670        C680   1.282       .  A
O671        C680   1.273       .  A
O672       Cu676   1.987       .  S
O672        C679   1.274       .  A
O673       Cu676   2.036   1_554  S
O673        C678   1.281       .  A
O674        C677   1.282       .  A
C677        C870   1.482       .  S
C678        C860   1.468       .  S
C679        C880   1.469       .  S
C680        C850   1.469       .  S
C681        C843   1.494       .  S
C681        C682   1.409       .  A
C681        C686   1.412       .  A
C682        C683   1.406       .  A
C682        H687   1.082       .  S
C683        C873   1.488       .  S
C683        C684   1.407       .  A
C684        C685   1.398       .  A
C684        H688   1.084       .  S
C685        C686   1.400       .  A
C685        C838   1.446       .  S
C686        H689   1.083       .  S
C690        C828   1.487       .  S
C690        C691   1.407       .  A
C690        C695   1.408       .  A
C691        C692   1.411       .  A
C691        H696   1.083       .  S
C692        C883   1.493       .  S
C692        C693   1.412       .  A
C693        C694   1.398       .  A
C693        H697   1.083       .  S
C694        C695   1.397       .  A
C694        C837   1.446       .  S
C695        H698   1.084       .  S
O699        C709   1.274       .  A
O700       Cu707   1.985       .  S
O700        C710   1.274       .  A
O701       Cu707   2.027       .  S
O701        C711   1.280       .  A
O702        C712   1.280       .  A
O703        C712   1.274       .  A
O704       Cu708   1.988       .  S
O704        C711   1.274       .  A
O705       Cu708   2.033       .  S
O705        C710   1.281       .  A
O706        C709   1.281       .  A
Cu707      Cu708   2.367       .  S
C709        C798   1.469       .  S
C710        C821   1.469       .  S
C711        C808   1.467       .  S
C712        C788   1.465       .  S
C713        C801   1.496       .  S
C713        C714   1.410       .  A
C713        C718   1.408       .  A
C714        C715   1.400       .  A
C714        H719   1.083       .  S
C715        C716   1.400       .  A
C715        C785   1.447       .  S
C716        C717   1.410       .  A
C716        H720   1.083       .  S
C717        C863   1.495       .  S
C717        C718   1.408       .  A
C718        H721   1.080       .  S
C722        C811   1.498       .  S
C722        C723   1.411       .  A
C722        C727   1.409       .  A
C723        C724   1.400       .  A
C723        H728   1.082       .  S
C724        C725   1.400       .  A
C724        C786   1.447       .  S
C725        C726   1.410       .  A
C725        H729   1.083       .  S
C726        C853   1.495       .  S
C726        C727   1.407       .  A
C727        H730   1.080       .  S
O731       Cu739   1.978       .  S
O731        C741   1.273       .  A
O732       Cu739   1.978       .  S
O732        C742   1.273       .  A
O733       Cu739   2.052       .  S
O733        C743   1.284       .  A
O734       Cu739   2.052       .  S
O734        C744   1.284       .  A
O735       Cu740   1.969       .  S
O735        C744   1.273       .  A
O736       Cu740   1.967       .  S
O736        C743   1.273       .  A
O737       Cu740   2.034       .  S
O737        C742   1.281       .  A
O738       Cu740   2.035       .  S
O738        C741   1.281       .  A
Cu739      Cu740   2.368       .  S
C741        C840   1.469       .  S
C742        C766   1.466       .  S
C743        C831   1.484       .  S
C744        C776   1.484       .  S
C745        C769   1.493       .  S
C745        C746   1.409       .  A
C745        C750   1.406       .  A
C746        C747   1.400       .  A
C746        H751   1.083       .  S
C747        C748   1.400       .  A
C747        C763   1.445       .  S
C748        C749   1.409       .  A
C748        H752   1.083       .  S
C749        C791   1.494       .  S
C749        C750   1.407       .  A
C750        H753   1.080       .  S
C754        C779   1.490       .  S
C754        C755   1.407       .  A
C754        C759   1.408       .  A
C755        C756   1.410       .  A
C755        H760   1.082       .  S
C756        C818   1.493       .  S
C756        C757   1.411       .  A
C757        C758   1.399       .  A
C757        H761   1.083       .  S
C758        C759   1.397       .  A
C758        C764   1.445       .  S
C759        H762   1.084       .  S
C765        C766   1.401       .  A
C765        C770   1.396       .  A
C765        H771   1.083       .  S
C766        C767   1.399       .  A
C767        C768   1.398       .  A
C767        H772   1.084       .  S
C768        C769   1.411       .  A
C768        H773   1.082       .  S
C769        C770   1.408       .  A
C770        H774   1.082       .  S
C775        C776   1.407       .  A
C775        C780   1.390       .  A
C775        H781   1.083       .  S
C776        C777   1.405       .  A
C777        C778   1.406       .  A
C777        H782   1.083       .  S
C778        C779   1.411       .  A
C778        H783   1.083       .  S
C779        C780   1.402       .  A
C780        H784   1.083       .  S
C785        C786   1.210       .  T
C787        C788   1.401       .  A
C787        C792   1.397       .  A
C787        H793   1.083       .  S
C788        C789   1.399       .  A
C789        C790   1.398       .  A
C789        H794   1.084       .  S
C790        C791   1.411       .  A
C790        H795   1.082       .  S
C791        C792   1.409       .  A
C792        H796   1.082       .  S
C797        C798   1.400       .  A
C797        C802   1.399       .  A
C797        H803   1.083       .  S
C798        C799   1.401       .  A
C799        C800   1.397       .  A
C799        H804   1.083       .  S
C800        C801   1.409       .  A
C800        H805   1.082       .  S
C801        C802   1.412       .  A
C802        H806   1.081       .  S
C807        C808   1.401       .  A
C807        C812   1.397       .  A
C807        H813   1.083       .  S
C808        C809   1.399       .  A
C809        C810   1.398       .  A
C809        H814   1.084       .  S
C810        C811   1.412       .  A
C810        H815   1.081       .  S
C811        C812   1.410       .  A
C812        H816   1.082       .  S
C817        C818   1.410       .  A
C817        C822   1.401       .  A
C817        H823   1.082       .  S
C818        C819   1.408       .  A
C819        C820   1.396       .  A
C819        H824   1.082       .  S
C820        C821   1.401       .  A
C820        H825   1.083       .  S
C821        C822   1.401       .  A
C822        H826   1.083       .  S
C827        C828   1.410       .  A
C827        C832   1.407       .  A
C827        H833   1.083       .  S
C828        C829   1.401       .  A
C829        C830   1.390       .  A
C829        H834   1.083       .  S
C830        C831   1.407       .  A
C830        H835   1.083       .  S
C831        C832   1.406       .  A
C832        H836   1.083       .  S
C839        C840   1.401       .  A
C839        C844   1.401       .  A
C839        H845   1.083       .  S
C840        C841   1.401       .  A
C841        C842   1.396       .  A
C841        H846   1.083       .  S
C842        C843   1.408       .  A
C842        H847   1.082       .  S
C843        C844   1.411       .  A
C844        H848   1.082       .  S
C849        C850   1.402       .  A
C849        C854   1.397       .  A
C849        H855   1.083       .  S
C850        C851   1.400       .  A
C851        C852   1.400       .  A
C851        H856   1.084       .  S
C852        C853   1.411       .  A
C852        H857   1.082       .  S
C853        C854   1.408       .  A
C854        H858   1.082       .  S
C859        C860   1.400       .  A
C859        C864   1.400       .  A
C859        H865   1.084       .  S
C860        C861   1.401       .  A
C861        C862   1.397       .  A
C861        H866   1.083       .  S
C862        C863   1.408       .  A
C862        H867   1.082       .  S
C863        C864   1.411       .  A
C864        H868   1.082       .  S
C869        C870   1.407       .  A
C869        C874   1.393       .  A
C869        H875   1.083       .  S
C870        C871   1.405       .  A
C871        C872   1.403       .  A
C871        H876   1.083       .  S
C872        C873   1.409       .  A
C872        H877   1.083       .  S
C873        C874   1.403       .  A
C874        H878   1.083       .  S
C879        C880   1.400       .  A
C879        C884   1.396       .  A
C879        H885   1.083       .  S
C880        C881   1.401       .  A
C881        C882   1.401       .  A
C881        H886   1.083       .  S
C882        C883   1.410       .  A
C882        H887   1.082       .  S
C883        C884   1.408       .  A
C884        H888   1.082       .  S
