geometry optimzed in LAMMPS
_audit_creation_date              2020-11-30 
_audit_creation_method            'lammps2cif' 
_symmetry_space_group_name_H-M    'P1' 
_symmetry_Int_Tables_number       1 
_symmetry_cell_setting            triclinic 
loop_ 
_symmetry_equiv_pos_as_xyz 
  x,y,z 
_cell_length_a                    44.18040879 
_cell_length_b                    44.29926979789267 
_cell_length_c                    33.1688908933022 
_cell_angle_alpha                 90.0312752683345 
_cell_angle_beta                  90.24080051824595 
_cell_angle_gamma                 119.99868785073929 
loop_ 
_atom_site_label 
_atom_site_type_symbol 
_atom_site_fract_x 
_atom_site_fract_y 
_atom_site_fract_z 
_atom_site_charge 
O1          O  0.00423244  0.46913222  0.26771301    -0.73000
O2          O  0.00851997  0.47224044  0.38893269    -0.73900
O3          O  0.45600822  0.43232416  0.32435111    -0.62600
O4          O  0.05023381  0.02277738  0.32667096    -0.71000
O5          O  0.02003895  0.05029626  0.32590246    -0.70500
O6          O  0.42918372  0.46329618  0.32307958    -0.61800
O7          O  0.47935666  0.99847681  0.39631835    -0.74300
O8          O  0.47746476  0.99873966  0.27565752    -0.73100
Cu9        Cu  0.00732675  0.46951229  0.32825318     1.04600
Cu10       Cu  0.47734618  0.99949256  0.33603680     1.04300
C11         C  0.48725756  0.48928877  0.24215496     0.93200
C12         C  0.99487279  0.99596020  0.40994437     0.92400
C13         C  0.42790786  0.43390792  0.32503919     0.84500
C14         C  0.04936232  0.05116630  0.32518012     0.90800
O15         O  0.47722858  0.18996668  0.33268086    -0.73000
O16         O  0.07136373  0.29122582  0.33136862    -0.73900
O17         O  0.02756086  0.24751177  0.39360029    -0.62600
O18         O  0.02510621  0.24423393  0.27270386    -0.71000
O19         O  0.49317152  0.26516427  0.27379693    -0.70500
O20         O  0.49502255  0.26352000  0.39429400    -0.61800
O21         O  0.04209833  0.31986124  0.33221088    -0.74300
O22         O  0.44880980  0.21930403  0.33408384    -0.73100
Cu23       Cu  0.02745039  0.24494239  0.33317179     1.04600
Cu24       Cu  0.49300010  0.26525007  0.33411478     1.04300
C25         C  0.44849460  0.19034445  0.33388978     0.93200
C26         C  0.07099283  0.31986207  0.33120407     0.92400
C27         C  0.01244097  0.26142427  0.41248166     0.84500
C28         C  0.01037391  0.25835854  0.25333314     0.90800
O29         O  0.27605283  0.49279846  0.27337389    -0.70600
O30         O  0.27461252  0.49416028  0.39372766    -0.73900
O31         O  0.22957830  0.44936028  0.33302231    -0.62600
O32         O  0.31581386  0.03018117  0.33544481    -0.71000
O33         O  0.28857216  0.06068590  0.33365631    -0.70500
O34         O  0.20193718  0.47961160  0.33230236    -0.61800
O35         O  0.24223645  0.01852468  0.39519766    -0.74300
O36         O  0.24160579  0.01396004  0.27460207    -0.73100
Cu37       Cu  0.27642976  0.49260770  0.33362590     1.04600
Cu38       Cu  0.24130491  0.01757912  0.33483729     1.04300
C39         C  0.26183999  0.50706169  0.25333824     0.93200
C40         C  0.26082954  0.50944010  0.41244999     0.92400
C41         C  0.20123679  0.45044839  0.33273010     0.84500
C42         C  0.31690362  0.05950344  0.33415372     0.90800
O43         O  0.29413882  0.27906675  0.33058001    -0.73000
O44         O  0.20514719  0.18827249  0.32292400    -0.73900
O45         O  0.25145907  0.23817624  0.26665562    -0.62600
O46         O  0.24830647  0.23008605  0.38712582    -0.71000
O47         O  0.21847331  0.25798192  0.38967495    -0.70500
O48         O  0.22114676  0.26552249  0.26879419    -0.61800
O49         O  0.17468359  0.21547072  0.32569231    -0.74300
O50         O  0.26443735  0.30721221  0.33237577    -0.73100
Cu51       Cu  0.25066348  0.23286040  0.32673530     1.04600
Cu52       Cu  0.21850994  0.26242377  0.32928649     1.04300
C53         C  0.29352778  0.30754513  0.33183697     0.93200
C54         C  0.17571986  0.18719589  0.32327820     0.92400
C55         C  0.23771388  0.25391103  0.24854684     0.84500
C56         C  0.23324485  0.24320114  0.40764532     0.90800
O57         O  0.01248892  0.02038751  0.93828182    -0.73000
O58         O  0.00582913  0.01696821  0.05887050    -0.73900
O59         O  0.05432260  0.01883931  0.00222269    -0.62600
O60         O  0.46611152  0.02188024  0.99976942    -0.71000
O61         O  0.44190555  0.46752703  0.98296813    -0.70500
O62         O  0.03349131  0.46848912  0.99638824    -0.61800
O63         O  0.48201150  0.46351786  0.04740649    -0.74300
O64         O  0.49004127  0.46765299  0.92619192    -0.73100
Cu65       Cu  0.01034358  0.02072049  0.99871838     1.04600
Cu66       Cu  0.48497692  0.46341234  0.98667865     1.04300
C67         C  0.00420353  0.49774373  0.91559126     0.93200
C68         C  0.49556862  0.49195451  0.06766061     0.92400
C69         C  0.06178598  0.49781450  0.99925681     0.84500
C70         C  0.44304875  0.49693652  0.98372162     0.90800
O71         O  0.05928115  0.28468337  0.99563239    -0.73000
O72         O  0.47278334  0.28970947  0.00250712    -0.73900
O73         O  0.01638033  0.28504544  0.05874245    -0.62600
O74         O  0.01080791  0.28242964  0.93815364    -0.71000
O75         O  0.48210614  0.22851536  0.93980513    -0.70500
O76         O  0.48721139  0.22870099  0.06015332    -0.61800
O77         O  0.44115697  0.23203756  0.00315207    -0.74300
O78         O  0.03131272  0.22701198  0.99641792    -0.73100
Cu79       Cu  0.01461429  0.28572295  0.99835875     1.04600
Cu80       Cu  0.48350416  0.22674295  0.00001280     1.04300
C81         C  0.05982393  0.25611812  0.99495394     0.93200
C82         C  0.44312396  0.26180600  0.00396911     0.92400
C83         C  0.00357963  0.25664016  0.07865216     0.84500
C84         C  0.99551388  0.25314790  0.91970085     0.90800
O85         O  0.28308838  0.46960389  0.99745088    -0.73000
O86         O  0.19361235  0.47048195  0.00240350    -0.73900
O87         O  0.23571596  0.46861977  0.93961490    -0.62600
O88         O  0.24146776  0.47222347  0.06079907    -0.71000
O89         O  0.26109892  0.01695795  0.06225964    -0.70500
O90         O  0.25597277  0.01646450  0.94256603    -0.61800
O91         O  0.21334138  0.01631002  0.00553518    -0.74300
O92         O  0.30367769  0.01611173  0.99919070    -0.73100
Cu93       Cu  0.23746739  0.46825803  0.00024959     1.04600
Cu94       Cu  0.25957654  0.01839905  0.00241025     1.04300
C95         C  0.31219735  0.49797103  0.99502203     0.93200
C96         C  0.19348024  0.49919989  0.00155787     0.92400
C97         C  0.24978155  0.49709291  0.91970504     0.84500
C98         C  0.25654094  0.50180945  0.07869030     0.90800
O99         O  0.24030525  0.23826023  0.05584545    -0.73000
O100        O  0.24345240  0.23720338  0.93569391    -0.73900
O101        O  0.28756642  0.23948574  0.99876364    -0.62600
O102        O  0.19601477  0.23620799  0.99285486    -0.71000
O103        O  0.22319200  0.29386036  0.99130704    -0.70500
O104        O  0.31533073  0.29723975  0.99920470    -0.61800
O105        O  0.27171119  0.29492622  0.93445821    -0.74300
O106        O  0.26645897  0.29605779  0.05602367    -0.73100
Cu107      Cu  0.24091474  0.23586828  0.99579270     1.04600
Cu108      Cu  0.27018267  0.29762567  0.99520770     1.04300
C109        C  0.25281479  0.26708467  0.07495410     0.93200
C110        C  0.25805826  0.26568139  0.91586912     0.92400
C111        C  0.31597221  0.26873413  0.00011073     0.84500
C112        C  0.19492127  0.26444208  0.99100370     0.90800
O113        O  0.03122907  0.47151866  0.66201775    -0.73000
O114        O  0.02738940  0.06032254  0.66474318    -0.73900
O115        O  0.02886217  0.01507084  0.72395581    -0.62600
O116        O  0.02684435  0.01583579  0.60304555    -0.71000
O117        O  0.47072928  0.48782025  0.59679015    -0.70500
O118        O  0.47757808  0.48712073  0.71703426    -0.61800
O119        O  0.47928136  0.03470167  0.66938669    -0.74300
O120        O  0.47270219  0.44168469  0.65458668    -0.73100
Cu121      Cu  0.02989649  0.01657360  0.66344746     1.04600
Cu122      Cu  0.47228489  0.48676495  0.65702126     1.04300
C123        C  0.00178236  0.44321558  0.66216612     0.93200
C124        C  0.99851236  0.06028207  0.66621065     0.92400
C125        C  0.00533469  0.50398449  0.74134140     0.84500
C126        C  0.00206341  0.50213634  0.58234214     0.90800
O127        O  0.47686687  0.19265706  0.66886670    -0.73000
O128        O  0.47567668  0.28236972  0.66152060    -0.73900
O129        O  0.47792756  0.23596532  0.60526209    -0.62600
O130        O  0.47434239  0.23924543  0.72551993    -0.71000
O131        O  0.02559589  0.26526868  0.72768188    -0.70500
O132        O  0.03042907  0.26560895  0.60748179    -0.61800
O133        O  0.02966464  0.31102127  0.66640713    -0.74300
O134        O  0.02588393  0.21900824  0.66876135    -0.73100
Cu135      Cu  0.47419941  0.23648200  0.66526146     1.04600
Cu136      Cu  0.02987051  0.26605683  0.66772898     1.04300
C137        C  0.99651745  0.19063942  0.66692329     0.93200
C138        C  0.00131488  0.31202066  0.66468504     0.92400
C139        C  0.00235407  0.25321737  0.58662180     0.84500
C140        C  0.99604419  0.25158636  0.74530865     0.90800
O141        O  0.27231623  0.05690243  0.67144279    -0.73000
O142        O  0.28034366  0.47157621  0.66447068    -0.73900
O143        O  0.27316623  0.01276050  0.61059659    -0.62600
O144        O  0.26864762  0.00962500  0.73082233    -0.71000
O145        O  0.22288503  0.48659307  0.72550795    -0.70500
O146        O  0.22493369  0.49336409  0.60472302    -0.61800
O147        O  0.22261586  0.44428047  0.66126260    -0.74300
O148        O  0.21458128  0.02968354  0.66895554    -0.73100
Cu149      Cu  0.27283482  0.01210495  0.67083139     1.04600
Cu150      Cu  0.22183951  0.48891906  0.66503965     1.04300
C151        C  0.24403168  0.05802397  0.67017229     0.93200
C152        C  0.25098250  0.44326778  0.66186073     0.92400
C153        C  0.25434267  0.50720119  0.58668722     0.84500
C154        C  0.25168939  0.50074736  0.74518360     0.90800
O155        O  0.22278726  0.24097611  0.72384674    -0.73000
O156        O  0.21555734  0.23422769  0.60347609    -0.73900
O157        O  0.21717995  0.19148221  0.66608584    -0.62600
O158        O  0.22141225  0.28372912  0.66136506    -0.71000
O159        O  0.27899173  0.31055456  0.65654938    -0.70500
O160        O  0.27486062  0.21823475  0.66334848    -0.61800
O161        O  0.27326942  0.26001421  0.59942141    -0.74300
O162        O  0.28063229  0.26884005  0.72043046    -0.73100
Cu163      Cu  0.21727417  0.23670308  0.66382542     1.04600
Cu164      Cu  0.27897722  0.26534622  0.65976033     1.04300
C165        C  0.25263864  0.25582910  0.74126288     0.93200
C166        C  0.24324851  0.24588290  0.58233347     0.92400
C167        C  0.24535279  0.19009577  0.66569535     0.84500
C168        C  0.25080374  0.31187127  0.65823519     0.90800
C169        C  0.25014751  0.40928653  0.65956795    -0.00200
C170        C  0.28190458  0.40944582  0.65554996    -0.12000
C171        C  0.28302203  0.37842947  0.65429632     0.02100
C172        C  0.25168728  0.34592713  0.65726779    -0.00200
C173        C  0.21989182  0.34579628  0.66042683    -0.12000
C174        C  0.21875844  0.37675803  0.66158830     0.02000
H175        H  0.30624930  0.43402106  0.65345655     0.14900
H176        H  0.19549950  0.32126725  0.66250247     0.14900
C177        C  0.18482870  0.37380175  0.66559319     0.36600
C178        C  0.31687380  0.38126619  0.65004144     0.36500
N179        N  0.15752093  0.37113723  0.66880175    -0.43800
N180        N  0.34412295  0.38383770  0.64657241    -0.43700
C181        C  0.24514838  0.09220279  0.66983289    -0.00200
C182        C  0.21357169  0.09248852  0.67285934    -0.12000
C183        C  0.21275135  0.12366094  0.67188984     0.02100
C184        C  0.24421406  0.15591836  0.66770750    -0.00200
C185        C  0.27581709  0.15562739  0.66502243    -0.12000
C186        C  0.27664935  0.12447998  0.66599294     0.02000
H187        H  0.18912830  0.06812753  0.67600051     0.14900
H188        H  0.30028015  0.17995099  0.66179274     0.14900
C189        C  0.31037884  0.12692424  0.66228138     0.36600
C190        C  0.17903350  0.12121543  0.67530911     0.36500
N191        N  0.33749120  0.12909431  0.65928246    -0.43800
N192        N  0.15186665  0.11893106  0.67805390    -0.43700
C193        C  0.00087107  0.40925533  0.66270337    -0.00200
C194        C  0.03188725  0.40886774  0.65467737    -0.12000
C195        C  0.03286405  0.37781270  0.65498661     0.02100
C196        C  0.00219301  0.34594188  0.66369186    -0.00200
C197        C  0.47214121  0.34395669  0.66194309    -0.12000
C198        C  0.47015058  0.37449633  0.66008656     0.02000
H199        H  0.05563776  0.43298107  0.64772761     0.14900
H200        H  0.44853927  0.31950834  0.66821406     0.14900
C201        C  0.43635405  0.37135139  0.66629808     0.36600
C202        C  0.06563473  0.37975325  0.64526956     0.36500
N203        N  0.40916239  0.36858533  0.67123355    -0.43800
N204        N  0.09196806  0.38151360  0.63740834    -0.43700
C205        C  0.99838140  0.09381795  0.66740075    -0.00200
C206        C  0.47899943  0.09730087  0.68350699    -0.12000
C207        C  0.47774156  0.12820546  0.68575152     0.02100
C208        C  0.99585172  0.15668383  0.66738129    -0.00200
C209        C  0.02752937  0.15707228  0.67354704    -0.12000
C210        C  0.02911874  0.12635944  0.67376119     0.02000
H211        H  0.45659667  0.07323941  0.69365837     0.14900
H212        H  0.05149620  0.18162950  0.67842447     0.14900
C213        C  0.06280534  0.12953676  0.68131583     0.36600
C214        C  0.44700706  0.12661377  0.70300280     0.36500
N215        N  0.08992399  0.13241518  0.68747171    -0.43800
N216        N  0.42244072  0.12528238  0.71707575    -0.43700
C217        C  0.25803512  0.26405535  0.87108539    -0.00200
C218        C  0.23169498  0.23390518  0.85205769    -0.12000
C219        C  0.22971666  0.23061341  0.81009474     0.02100
C220        C  0.25460156  0.25790697  0.78588173    -0.00200
C221        C  0.28149477  0.28777431  0.80472022    -0.12000
C222        C  0.28334277  0.29119344  0.84687956     0.02000
H223        H  0.21213560  0.21262631  0.87012960     0.14900
H224        H  0.30095233  0.30885722  0.78633426     0.14900
C225        C  0.31193067  0.32236211  0.86430760     0.36600
C226        C  0.20254857  0.19836580  0.79280889     0.36500
N227        N  0.33489226  0.34737321  0.87816509    -0.43800
N228        N  0.18084767  0.17250752  0.77896905    -0.43700
C229        C  0.24940038  0.49689883  0.87491451    -0.00200
C230        C  0.26432076  0.01877821  0.85864867    -0.12000
C231        C  0.26443193  0.02169574  0.81671791     0.02100
C232        C  0.25131752  0.49998834  0.78968584    -0.00200
C233        C  0.22620496  0.46988010  0.80946779    -0.12000
C234        C  0.22530102  0.46786595  0.85165079     0.02000
H235        H  0.28479836  0.03997741  0.87599711     0.14900
H236        H  0.20757353  0.44757499  0.79185388     0.14900
C237        C  0.19927017  0.43571031  0.86981971     0.36600
C238        C  0.29088947  0.05375015  0.79864031     0.36500
N239        N  0.17851577  0.40969929  0.88405524    -0.43800
N240        N  0.31195570  0.07949016  0.78417867    -0.43700
C241        C  0.41092152  0.26417791  0.00572302    -0.00200
C242        C  0.41172085  0.29422408  0.99064629    -0.12000
C243        C  0.38147668  0.29688015  0.98922691     0.02100
C244        C  0.34947509  0.26889566  0.00300761    -0.00200
C245        C  0.34900338  0.23939272  0.01925608    -0.12000
C246        C  0.37924773  0.23692988  0.02115580     0.02000
H247        H  0.43591137  0.31545024  0.97888419     0.14900
H248        H  0.32479266  0.21799821  0.03071898     0.14900
C249        C  0.37697567  0.20653763  0.04018446     0.36600
C250        C  0.38399912  0.32796631  0.97190280     0.36500
N251        N  0.37505827  0.18222522  0.05563444    -0.43800
N252        N  0.38621803  0.35296544  0.95804481    -0.43700
C253        C  0.16048002  0.26261686  0.98957294    -0.00200
C254        C  0.13058754  0.23093037  0.99960586    -0.12000
C255        C  0.09754833  0.22782145  0.00088601     0.02100
C256        C  0.09382688  0.25710788  0.99236913    -0.00200
C257        C  0.12357278  0.28853628  0.98122340    -0.12000
C258        C  0.15655803  0.29148337  0.97938081     0.02000
H259        H  0.13297152  0.20841766  0.00718859     0.14900
H260        H  0.12112593  0.31100413  0.97358951     0.14900
C261        C  0.18545159  0.32424061  0.96592358     0.36600
C262        C  0.06837481  0.19430617  0.01183050     0.36500
N263        N  0.20843126  0.35049812  0.95491482    -0.43800
N264        N  0.04511639  0.16733651  0.02042920    -0.43700
C265        C  0.99380477  0.25247408  0.87496299    -0.00200
C266        C  0.01806129  0.28227289  0.85379614    -0.12000
C267        C  0.01878383  0.28270012  0.81166786     0.02100
C268        C  0.99489472  0.25281990  0.78971608    -0.00200
C269        C  0.47408703  0.22854221  0.81059597    -0.12000
C270        C  0.47190167  0.22809902  0.85269988     0.02000
H271        H  0.03691761  0.30532324  0.87016820     0.14900
H272        H  0.45482864  0.20621201  0.79350478     0.14900
C273        C  0.44316304  0.19794838  0.87126706     0.36600
C274        C  0.04349072  0.31458586  0.79173707     0.36500
N275        N  0.42009292  0.17370718  0.88595648    -0.43800
N276        N  0.06312801  0.34016699  0.77574541    -0.43700
C277        C  0.40984948  0.49792444  0.98390707    -0.00200
C278        C  0.37829780  0.46639255  0.98865301    -0.12000
C279        C  0.34637268  0.46555650  0.99218366     0.02100
C280        C  0.34530531  0.49702455  0.99103765    -0.00200
C281        C  0.36809512  0.01952096  0.98931017    -0.12000
C282        C  0.40086241  0.02191234  0.98831212     0.02000
H283        H  0.37845630  0.44202198  0.99038305     0.14900
H284        H  0.36668122  0.04305665  0.98506083     0.14900
C285        C  0.43084429  0.05566154  0.98010801     0.36600
C286        C  0.31551016  0.43178805  0.99738958     0.36500
N287        N  0.45474623  0.08272921  0.97332806    -0.43800
N288        N  0.29094244  0.40462631  0.00150261    -0.43700
C289        C  0.15966886  0.49857288  0.00126459    -0.00200
C290        C  0.15183335  0.01949561  0.00381956    -0.12000
C291        C  0.12117186  0.02129434  0.00228967     0.02100
C292        C  0.09569593  0.49867256  0.00121787    -0.00200
C293        C  0.09822270  0.47162440  0.98254200    -0.12000
C294        C  0.12966189  0.47131209  0.98235430     0.02000
H295        H  0.17671186  0.04348035  0.00141169     0.14900
H296        H  0.07562703  0.45083679  0.96726635     0.14900
C297        C  0.13044231  0.44324475  0.96111609     0.36600
C298        C  0.12484590  0.05542479  0.99793986     0.36500
N299        N  0.13082257  0.42062596  0.94411600    -0.43800
N300        N  0.12803708  0.08287355  0.99456656    -0.43700
C301        C  0.00525568  0.49889066  0.87067464    -0.00200
C302        C  0.02698416  0.02085760  0.85407145    -0.12000
C303        C  0.02841738  0.02357129  0.81195676     0.02100
C304        C  0.00589902  0.50306649  0.78557433    -0.00200
C305        C  0.52423683  0.53127931  0.80017705    -0.12000
C306        C  0.52390915  0.53125864  0.84240320     0.02000
H307        H  0.04847521  0.04045202  0.87194277     0.14900
H308        H  0.53520872  0.55579414  0.78401805     0.14900
C309        C  0.53822762  0.56463507  0.86238732     0.36600
C310        C  0.05833542  0.05317158  0.79422925     0.36500
N311        N  0.54960670  0.59146471  0.87818948    -0.43800
N312        N  0.08232370  0.07691999  0.78009083    -0.43700
C313        C  0.23407514  0.24214139  0.45249415    -0.00200
C314        C  0.26033371  0.23795688  0.47136252    -0.12000
C315        C  0.26368153  0.23874394  0.51343587     0.02100
C316        C  0.24028807  0.24360337  0.53774415    -0.00200
C317        C  0.21335191  0.24663639  0.51906051    -0.12000
C318        C  0.21011504  0.24610538  0.47699078     0.02000
H319        H  0.27878693  0.23459305  0.45319785     0.14900
H320        H  0.19503545  0.25008156  0.53741363     0.14900
C321        C  0.18158996  0.24916642  0.46012384     0.36600
C322        C  0.29071826  0.23345208  0.53075937     0.36500
N323        N  0.15870509  0.25163388  0.44670620    -0.43800
N324        N  0.31232762  0.22909407  0.54457740    -0.43700
C325        C  0.24187227  0.25893950  0.20398625    -0.00200
C326        C  0.25899436  0.24405926  0.18325871    -0.12000
C327        C  0.26391285  0.24768451  0.14159247     0.02100
C328        C  0.25141419  0.26630595  0.11937840    -0.00200
C329        C  0.23544885  0.28235201  0.13973328    -0.12000
C330        C  0.23054613  0.27889319  0.18166009     0.02000
H331        H  0.26875418  0.22943973  0.19956208     0.14900
H332        H  0.22599751  0.29689876  0.12267766     0.14900
C333        C  0.21395390  0.29625575  0.20047661     0.36600
C334        C  0.28303219  0.23305624  0.12248088     0.36500
N335        N  0.20071269  0.31031563  0.21534534    -0.43800
N336        N  0.29864035  0.22158024  0.10736007    -0.43700
C337        C  0.25992485  0.50919216  0.45728447    -0.00200
C338        C  0.23832592  0.51949830  0.47696824    -0.12000
C339        C  0.23602446  0.51909286  0.51909092     0.02100
C340        C  0.25569966  0.50837506  0.54235652    -0.00200
C341        C  0.27715739  0.00373293  0.52689172    -0.12000
C342        C  0.28077212  0.00496451  0.48493480     0.02000
H343        H  0.22301337  0.52781887  0.45947842     0.14900
H344        H  0.29782123  0.00456612  0.54548868     0.14900
C345        C  0.31252636  0.00845045  0.46829691     0.36600
C346        C  0.21454906  0.53123023  0.53774601     0.36500
N347        N  0.33801268  0.01130514  0.45502449    -0.43800
N348        N  0.19752735  0.54115542  0.55273531    -0.43700
C349        C  0.25789727  0.50352512  0.12331504    -0.00200
C350        C  0.25939252  0.47707343  0.14492182    -0.12000
C351        C  0.26091853  0.47769386  0.18711958     0.02100
C352        C  0.26083890  0.50527319  0.20864707    -0.00200
C353        C  0.24995878  0.01970372  0.18975933    -0.12000
C354        C  0.24769702  0.01810988  0.14769824     0.02000
H355        H  0.25950939  0.45583188  0.12876164     0.14900
H356        H  0.25059600  0.04160837  0.20521274     0.14900
C357        C  0.24417642  0.04492324  0.12704235     0.36600
C358        C  0.26116180  0.44892783  0.20730654     0.36500
N359        N  0.24114135  0.06628427  0.11054551    -0.43800
N360        N  0.26126498  0.42579641  0.22337927    -0.43700
C361        C  0.01121019  0.26068715  0.45714186    -0.00200
C362        C  0.98285769  0.26060274  0.47628302    -0.12000
C363        C  0.97941707  0.25828231  0.51825006     0.02100
C364        C  0.00462852  0.25569641  0.54207809    -0.00200
C365        C  0.52956566  0.23950216  0.52316321    -0.12000
C366        C  0.53046316  0.23858751  0.48093668     0.02000
H367        H  0.96303689  0.26206801  0.45837051     0.14900
H368        H  0.54520543  0.23165515  0.54079171     0.14900
C369        C  0.55270643  0.22717545  0.46277238     0.36600
C370        C  0.95056296  0.26015027  0.53592845     0.36500
N371        N  0.57050163  0.21787997  0.44845573    -0.43800
N372        N  0.92754498  0.26186677  0.55001892    -0.43700
C373        C  0.41468998  0.15701078  0.33479816    -0.00200
C374        C  0.41384806  0.12622138  0.32255843    -0.12000
C375        C  0.38257980  0.09420334  0.32208563     0.02100
C376        C  0.35101770  0.09249476  0.33396073    -0.00200
C377        C  0.35195048  0.12321501  0.34657053    -0.12000
C378        C  0.38321109  0.15512387  0.34743642     0.02000
H379        H  0.43769120  0.12714322  0.31276853     0.14900
H380        H  0.32814556  0.12229460  0.35652676     0.14900
C381        C  0.38202572  0.18504362  0.36279897     0.36600
C382        C  0.38383327  0.06391918  0.30827363     0.36500
N383        N  0.38095540  0.20890375  0.37525111    -0.43800
N384        N  0.38499786  0.03972778  0.29724972    -0.43700
C385        C  0.16749484  0.41753891  0.33232242    -0.00200
C386        C  0.16505846  0.38908602  0.31088648    -0.12000
C387        C  0.13379656  0.35721999  0.30955231     0.02100
C388        C  0.10423853  0.35331983  0.33040056    -0.00200
C389        C  0.10656687  0.38188701  0.35152709    -0.12000
C390        C  0.13786002  0.41379783  0.35283087     0.02000
H391        H  0.18756540  0.39191318  0.29455402     0.14900
H392        H  0.08408515  0.37903111  0.36792798     0.14900
C393        C  0.13925115  0.44156723  0.37709636     0.36600
C394        C  0.13246947  0.32952882  0.28519899     0.36500
N395        N  0.14037129  0.46372362  0.39671340    -0.43800
N396        N  0.13138460  0.30741475  0.26553560    -0.43700
C397        C  0.00551285  0.25758172  0.12327718    -0.00200
C398        C  0.50468802  0.22797736  0.14248994    -0.12000
C399        C  0.50569088  0.22553344  0.18449021     0.02100
C400        C  0.00918572  0.25747508  0.20857453    -0.00200
C401        C  0.00559322  0.28331600  0.18816741    -0.12000
C402        C  0.00380949  0.28364626  0.14606222     0.02000
H403        H  0.50342906  0.20715494  0.12402170     0.14900
H404        H  0.00416116  0.30348233  0.20517616     0.14900
C405        C  0.99874009  0.31022754  0.12730308     0.36600
C406        C  0.50414090  0.19474911  0.20139889     0.36500
N407        N  0.99458038  0.33149373  0.11236788    -0.43800
N408        N  0.50291519  0.17005762  0.21483947    -0.43700
C409        C  0.99704926  0.49034096  0.45289802    -0.00200
C410        C  0.46950457  0.50125547  0.46761922    -0.12000
C411        C  0.47042783  0.50290814  0.50982770     0.02100
C412        C  0.00058929  0.49938827  0.53778172    -0.00200
C413        C  0.02462386  0.00158634  0.51900206    -0.12000
C414        C  0.02473274  0.00001831  0.47686396     0.02000
H415        H  0.44972276  0.50421405  0.45152554     0.14900
H416        H  0.04620693  0.00252398  0.53579017     0.14900
C417        C  0.05444746  0.00096059  0.45755286     0.36600
C418        C  0.44522830  0.50916032  0.53018229     0.36500
N419        N  0.07829092  0.00173012  0.44217192    -0.43800
N420        N  0.42498425  0.51411870  0.54644675    -0.43700
C421        C  0.32704456  0.34085166  0.33194612    -0.00200
C422        C  0.35640771  0.34158850  0.34941518    -0.12000
C423        C  0.38935028  0.37158427  0.34798944     0.02100
C424        C  0.39351604  0.40166675  0.32820717    -0.00200
C425        C  0.36398725  0.40119141  0.31150451    -0.12000
C426        C  0.33096503  0.37119868  0.31311812     0.02000
H427        H  0.35359937  0.31858696  0.36446249     0.14900
H428        H  0.36681049  0.42413019  0.29629745     0.14900
C429        C  0.30208435  0.37189008  0.29343346     0.36600
C430        C  0.41798971  0.37098247  0.36840591     0.36500
N431        N  0.27895999  0.37242649  0.27760986    -0.43800
N432        N  0.44083848  0.37046698  0.38496180    -0.43700
C433        C  0.14301036  0.15267831  0.32182226    -0.00200
C434        C  0.14538943  0.12261598  0.32889604    -0.12000
C435        C  0.11568196  0.08941012  0.32960569     0.02100
C436        C  0.08222645  0.08549399  0.32301401    -0.00200
C437        C  0.07989432  0.11548966  0.31508949    -0.12000
C438        C  0.10965611  0.14872982  0.31436302     0.02000
H439        H  0.17066635  0.12497355  0.33470207     0.14900
H440        H  0.05458552  0.11310826  0.30944179     0.14900
C441        C  0.10484440  0.17796066  0.30531514     0.36600
C442        C  0.12070749  0.06023849  0.33822145     0.36500
N443        N  0.10073689  0.20121516  0.29799829    -0.43800
N444        N  0.12492943  0.03699100  0.34512697    -0.43700
C445        C  0.49194505  0.49111647  0.11225038    -0.00200
C446        C  0.99174814  0.96087138  0.14218934    -0.12000
C447        C  0.99087629  0.95959024  0.18437574     0.02100
C448        C  0.48719521  0.48853791  0.19749411    -0.00200
C449        C  0.49196213  0.51803793  0.17647679    -0.12000
C450        C  0.49456252  0.51971215  0.13440349     0.02000
H451        H  0.99603142  0.94226217  0.12552475     0.14900
H452        H  0.49450585  0.54030662  0.19308010     0.14900
C453        C  0.49944254  0.55103787  0.11504448     0.36600
C454        C  0.99461212  0.93243861  0.20378256     0.36500
N455        N  0.50343268  0.57619814  0.09962959    -0.43800
N456        N  0.99759875  0.91060872  0.21914275    -0.43700
O457        O  0.00257141  0.97277302  0.27109976    -0.73000
O458        O  0.00901346  0.98096176  0.39135024    -0.73900
O459        O  0.46130445  0.92441473  0.33574041    -0.62600
O460        O  0.05147394  0.51554648  0.32634492    -0.71000
O461        O  0.02259188  0.54448115  0.32755767    -0.70500
O462        O  0.43292179  0.95374716  0.33611868    -0.61800
O463        O  0.47675622  0.50836878  0.38226763    -0.74300
O464        O  0.47454763  0.50571264  0.26079003    -0.73100
Cu465      Cu  0.00674217  0.97592326  0.33129017     1.04600
Cu466      Cu  0.47453473  0.50820221  0.32151615     1.04300
C467        C  0.49089044  0.98363478  0.25583125     0.93200
C468        C  0.99473599  0.48734115  0.40814571     0.92400
C469        C  0.43258429  0.92475087  0.33591821     0.84500
C470        C  0.05142767  0.54433580  0.32676864     0.90800
O471        O  0.48178403  0.69847662  0.33382411    -0.73000
O472        O  0.06522829  0.78350087  0.34106629    -0.73900
O473        O  0.02029659  0.73831581  0.40118774    -0.62600
O474        O  0.01990705  0.73899308  0.28071737    -0.71000
O475        O  0.49765177  0.77151115  0.27120150    -0.70500
O476        O  0.49926274  0.77391888  0.39146692    -0.61800
O477        O  0.03663041  0.81274798  0.34190343    -0.74300
O478        O  0.45313979  0.72764496  0.33259848    -0.73100
Cu479      Cu  0.02097158  0.73757757  0.34093646     1.04600
Cu480      Cu  0.49759125  0.77366661  0.33133489     1.04300
C481        C  0.45302170  0.69876815  0.33401714     0.93200
C482        C  0.06532484  0.81236691  0.34101031     0.92400
C483        C  0.00615614  0.75282886  0.42074908     0.84500
C484        C  0.00587959  0.75396651  0.26172232     0.90800
O485        O  0.26835951  0.98295795  0.27699494    -0.70600
O486        O  0.27033018  0.98877737  0.39780751    -0.73900
O487        O  0.22370896  0.94217318  0.33936496    -0.62600
O488        O  0.32150085  0.53805637  0.33408754    -0.71000
O489        O  0.29399258  0.56831162  0.33237881    -0.70500
O490        O  0.19615716  0.97243233  0.33639046    -0.61800
O491        O  0.24744513  0.52469093  0.39265118    -0.74300
O492        O  0.24832316  0.52286968  0.27164139    -0.73100
Cu493      Cu  0.27058731  0.98504941  0.33748614     1.04600
Cu494      Cu  0.24700327  0.52499054  0.33213877     1.04300
C495        C  0.25396516  0.99693732  0.25668683     0.93200
C496        C  0.25601229  0.00400327  0.41561446     0.92400
C497        C  0.19538680  0.94328322  0.33848595     0.84500
C498        C  0.32239418  0.56731030  0.33338277     0.90800
O499        O  0.29835116  0.76813444  0.33626961    -0.73000
O500        O  0.20893814  0.67796031  0.32900180    -0.73900
O501        O  0.25670993  0.72662559  0.27212886    -0.62600
O502        O  0.25134144  0.72086968  0.39354730    -0.71000
O503        O  0.22254964  0.74984433  0.39298722    -0.70500
O504        O  0.22570050  0.75353739  0.27243784    -0.61800
O505        O  0.17916650  0.70600076  0.32998468    -0.74300
O506        O  0.26927042  0.79678293  0.33502591    -0.73100
Cu507      Cu  0.25474235  0.72227639  0.33276055     1.04600
Cu508      Cu  0.22307629  0.75244051  0.33266300     1.04300
C509        C  0.29822287  0.79687211  0.33611145     0.93200
C510        C  0.17981802  0.67752315  0.32833932     0.92400
C511        C  0.24254668  0.74164594  0.25334827     0.84500
C512        C  0.23653387  0.73510107  0.41256188     0.90800
O513        O  0.01764991  0.52615311  0.93585136    -0.73000
O514        O  0.01175921  0.52246805  0.05679335    -0.73900
O515        O  0.06091338  0.52617932  0.99968104    -0.62600
O516        O  0.47249068  0.52509659  0.98572198    -0.71000
O517        O  0.43841272  0.96428222  0.99646915    -0.70500
O518        O  0.02584585  0.96125211  0.99885344    -0.61800
O519        O  0.48044193  0.96271455  0.06047575    -0.74300
O520        O  0.48796619  0.96810610  0.94014898    -0.73100
Cu521      Cu  0.01581432  0.52647440  0.99647561     1.04600
Cu522      Cu  0.48320984  0.96344311  0.00013369     1.04300
C523        C  0.99777315  0.99197563  0.91807622     0.93200
C524        C  0.49323542  0.99080270  0.08118969     0.92400
C525        C  0.05458709  0.99020004  0.00167074     0.84500
C526        C  0.43770550  0.99277604  0.99676934     0.90800
O527        O  0.06197630  0.78694271  0.00759387    -0.73000
O528        O  0.47079814  0.78338425  0.99708667    -0.73900
O529        O  0.01721022  0.78718257  0.06824447    -0.62600
O530        O  0.01620297  0.78622893  0.94740636    -0.71000
O531        O  0.48546461  0.72382919  0.93831503    -0.70500
O532        O  0.48744920  0.72609287  0.05896703    -0.61800
O533        O  0.44122351  0.72563901  0.99869786    -0.74300
O534        O  0.03324092  0.72926772  0.00693667    -0.73100
Cu535      Cu  0.01764692  0.78870051  0.00782286     1.04600
Cu536      Cu  0.48527061  0.72307433  0.99867123     1.04300
C537        C  0.06204970  0.75813606  0.00692085     0.93200
C538        C  0.44175995  0.75473662  0.99771326     0.92400
C539        C  0.00377709  0.75836458  0.08737971     0.84500
C540        C  0.00111749  0.75715565  0.92851213     0.90800
O541        O  0.27468762  0.95845892  0.99929698    -0.73000
O542        O  0.18460656  0.95866032  0.00587767    -0.73900
O543        O  0.22671359  0.95872196  0.94186643    -0.62600
O544        O  0.23232416  0.95921976  0.06360767    -0.71000
O545        O  0.27045778  0.52995890  0.05830920    -0.70500
O546        O  0.26502186  0.52631486  0.93823130    -0.61800
O547        O  0.22223671  0.52824379  0.00055247    -0.74300
O548        O  0.31284449  0.52718652  0.99554555    -0.73100
Cu549      Cu  0.22862699  0.95669929  0.00268775     1.04600
Cu550      Cu  0.26868403  0.52995748  0.99817818     1.04300
C551        C  0.30358783  0.98720937  0.99807908     0.93200
C552        C  0.18449551  0.98738745  0.00658324     0.92400
C553        C  0.24024618  0.98778582  0.92307163     0.84500
C554        C  0.24693520  0.98855210  0.08211413     0.90800
O555        O  0.23898654  0.73064717  0.05999689    -0.73000
O556        O  0.24036287  0.73471398  0.94006516    -0.73900
O557        O  0.28490985  0.73235603  0.99961295    -0.62600
O558        O  0.19536959  0.73387358  0.00071446    -0.71000
O559        O  0.22478864  0.79150930  0.00355774    -0.70500
O560        O  0.31459174  0.79006719  0.00189163    -0.61800
O561        O  0.27015155  0.79247778  0.94151770    -0.74300
O562        O  0.26941690  0.78845497  0.06360812    -0.73100
Cu563      Cu  0.23897109  0.73098794  0.99996440     1.04600
Cu564      Cu  0.27082520  0.79273929  0.00271562     1.04300
C565        C  0.25352229  0.75864793  0.08076837     0.93200
C566        C  0.25531498  0.76384178  0.92159584     0.92400
C567        C  0.31402492  0.76099693  0.00066286     0.84500
C568        C  0.19571936  0.76284428  0.00283222     0.90800
O569        O  0.02854625  0.97090102  0.66228844    -0.73000
O570        O  0.03439570  0.56341983  0.66106717    -0.73900
O571        O  0.03406332  0.51852882  0.72190348    -0.62600
O572        O  0.03154011  0.51591548  0.60063805    -0.71000
O573        O  0.47609666  0.98725361  0.60973313    -0.70500
O574        O  0.48046682  0.99032116  0.72959090    -0.61800
O575        O  0.47617859  0.53398825  0.65906746    -0.74300
O576        O  0.47818398  0.94355686  0.67056117    -0.73100
Cu577      Cu  0.03486628  0.51838417  0.66128357     1.04600
Cu578      Cu  0.47653922  0.98805686  0.66984799     1.04300
C579        C  0.99985448  0.94187722  0.66207943     0.93200
C580        C  0.00599720  0.56431709  0.66313707     0.92400
C581        C  0.00020629  0.99981134  0.74352103     0.84500
C582        C  0.99751910  0.00160567  0.58442417     0.90800
O583        O  0.47917941  0.69466976  0.66067834    -0.73000
O584        O  0.48059372  0.78559118  0.66696976    -0.73900
O585        O  0.48109973  0.74307069  0.60367618    -0.62600
O586        O  0.47887647  0.73754549  0.72419691    -0.71000
O587        O  0.03384757  0.77023140  0.73498028    -0.70500
O588        O  0.03367900  0.76716466  0.61425990    -0.61800
O589        O  0.03385876  0.81386772  0.67245619    -0.74300
O590        O  0.03356225  0.72331960  0.67612380    -0.73100
Cu591      Cu  0.47793501  0.73918868  0.66384762     1.04600
Cu592      Cu  0.03577551  0.76963306  0.67456832     1.04300
C593        C  0.00450423  0.69459514  0.67531771     0.93200
C594        C  0.00495459  0.81388477  0.67176726     0.92400
C595        C  0.00462992  0.75325510  0.59512444     0.84500
C596        C  0.00489103  0.75620768  0.75397273     0.90800
O597        O  0.28294734  0.56328838  0.66867411    -0.73000
O598        O  0.26946894  0.96548336  0.66979596    -0.73900
O599        O  0.28286425  0.51935517  0.60660026    -0.62600
O600        O  0.28086940  0.51571109  0.72672491    -0.71000
O601        O  0.21072162  0.98149140  0.72848385    -0.70500
O602        O  0.21535773  0.98558185  0.60734239    -0.61800
O603        O  0.21161964  0.93761396  0.66659936    -0.74300
O604        O  0.22505715  0.53538614  0.66881943    -0.73100
Cu605      Cu  0.28376820  0.51843573  0.66668955     1.04600
Cu606      Cu  0.21099011  0.98261625  0.66776838     1.04300
C607        C  0.25432073  0.56384423  0.66947645     0.93200
C608        C  0.24024589  0.93705355  0.66767801     0.92400
C609        C  0.24502036  0.99980194  0.58978994     0.84500
C610        C  0.23920968  0.99524323  0.74877321     0.90800
O611        O  0.22058026  0.73892115  0.72831487    -0.73000
O612        O  0.21575195  0.73164543  0.60779000    -0.73900
O613        O  0.22006293  0.69116007  0.67115989    -0.62600
O614        O  0.21648920  0.77948742  0.66513872    -0.71000
O615        O  0.27425330  0.80954497  0.66184738    -0.70500
O616        O  0.27790237  0.72133876  0.66961062    -0.61800
O617        O  0.27366429  0.76079138  0.60509231    -0.74300
O618        O  0.27835939  0.76972770  0.72637358    -0.73100
Cu619      Cu  0.21624960  0.73427464  0.66818671     1.04600
Cu620      Cu  0.27808424  0.76646509  0.66560004     1.04300
C621        C  0.24998043  0.75530301  0.74659480     0.93200
C622        C  0.24393289  0.74459431  0.58736710     0.92400
C623        C  0.24945460  0.69214411  0.67145823     0.84500
C624        C  0.24491400  0.80865212  0.66265655     0.90800
C625        C  0.24015550  0.90358318  0.66569742    -0.00200
C626        C  0.27008039  0.90394849  0.65089822    -0.12000
C627        C  0.27205427  0.87347923  0.64868944     0.02100
C628        C  0.24365031  0.84151038  0.66191785    -0.00200
C629        C  0.21344925  0.84103460  0.67609338    -0.12000
C630        C  0.21143853  0.87154839  0.67812422     0.02000
H631        H  0.29209815  0.92821626  0.64054795     0.14900
H632        H  0.19146311  0.81680727  0.68656365     0.14900
C633        C  0.18010512  0.86917729  0.69458437     0.36600
C634        C  0.30331686  0.87600129  0.63177814     0.36500
N635        N  0.15492894  0.86706799  0.70783959    -0.43800
N636        N  0.32840422  0.87818912  0.61813185    -0.43700
C637        C  0.25451693  0.59738580  0.67127623    -0.00200
C638        C  0.22463040  0.59722017  0.68587899    -0.12000
C639        C  0.22252403  0.62764805  0.68702008     0.02100
C640        C  0.25078263  0.65936407  0.67300919    -0.00200
C641        C  0.28098356  0.65970124  0.65915851    -0.12000
C642        C  0.28311553  0.62923715  0.65811149     0.02000
H643        H  0.20266690  0.57311652  0.69670472     0.14900
H644        H  0.30286011  0.68377291  0.64813200     0.14900
C645        C  0.31446012  0.63146063  0.64188388     0.36600
C646        C  0.19123895  0.62536506  0.70352849     0.36500
N647        N  0.33962389  0.63337462  0.62885474    -0.43800
N648        N  0.16610006  0.62334225  0.71678197    -0.43700
C649        C  0.00091267  0.90895008  0.66262306    -0.00200
C650        C  0.03130617  0.90989515  0.67715145    -0.12000
C651        C  0.03347083  0.87956244  0.68026175     0.02100
C652        C  0.00462607  0.84711838  0.66874841    -0.00200
C653        C  0.48146437  0.84848413  0.68650550    -0.12000
C654        C  0.48000372  0.87931624  0.68786592     0.02000
H655        H  0.05341098  0.93443397  0.68697015     0.14900
H656        H  0.46031944  0.82497221  0.69959217     0.14900
C657        C  0.45070920  0.87860800  0.70796025     0.36600
C658        C  0.06531286  0.88272369  0.69652648     0.36500
N659        N  0.42728091  0.87800696  0.72420854    -0.43800
N660        N  0.09095483  0.88552958  0.70950661    -0.43700
C661        C  0.00658269  0.59816342  0.66593466    -0.00200
C662        C  0.47945604  0.59883654  0.64036605    -0.12000
C663        C  0.47944861  0.63044098  0.64004975     0.02100
C664        C  0.00443116  0.66097167  0.67354829    -0.00200
C665        C  0.03607334  0.66167276  0.66591326    -0.12000
C666        C  0.03747876  0.63092013  0.66200823     0.02000
H667        H  0.45813603  0.57614550  0.62585312     0.14900
H668        H  0.05999291  0.68645799  0.66233312     0.14900
C669        C  0.07103493  0.63423194  0.65338674     0.36600
C670        C  0.45134510  0.63159360  0.61901684     0.36500
N671        N  0.09802189  0.63713549  0.64645834    -0.43800
N672        N  0.42888375  0.63247241  0.60197697    -0.43700
C673        C  0.25451865  0.76347621  0.87682489    -0.00200
C674        C  0.22549801  0.73596749  0.85752220    -0.12000
C675        C  0.22349793  0.73272381  0.81555553     0.02100
C676        C  0.25107661  0.75761239  0.79144516    -0.00200
C677        C  0.28029972  0.78514683  0.81076502    -0.12000
C678        C  0.28224703  0.78830772  0.85298782     0.02000
H679        H  0.20405233  0.71648335  0.87550918     0.14900
H680        H  0.30187920  0.80440219  0.79276989     0.14900
C681        C  0.31363709  0.81618593  0.87099855     0.36600
C682        C  0.19333349  0.70266903  0.79850339     0.36500
N683        N  0.33889647  0.83844980  0.88536611    -0.43800
N684        N  0.16911370  0.67849164  0.78509704    -0.43700
C685        C  0.23847288  0.98900484  0.87843701    -0.00200
C686        C  0.27427551  0.52711092  0.85483736    -0.12000
C687        C  0.27562212  0.52880185  0.81278841     0.02100
C688        C  0.23838896  0.99425949  0.79337717    -0.00200
C689        C  0.21174156  0.96499245  0.81305534    -0.12000
C690        C  0.21152468  0.96214262  0.85520715     0.02000
H691        H  0.29311399  0.54960013  0.87203024     0.14900
H692        H  0.19130075  0.94401410  0.79542271     0.14900
C693        C  0.18274204  0.93200372  0.87369051     0.36600
C694        C  0.30157663  0.56087872  0.79426456     0.36500
N695        N  0.15955261  0.90791738  0.88845547    -0.43800
N696        N  0.32240466  0.58656247  0.77946782    -0.43700
C697        C  0.40878245  0.75574226  0.99786266    -0.00200
C698        C  0.40944594  0.78571384  0.01291764    -0.12000
C699        C  0.37916366  0.78821782  0.01416047     0.02100
C700        C  0.34712546  0.76017727  0.00001845    -0.00200
C701        C  0.34654031  0.73030625  0.98471966    -0.12000
C702        C  0.37687262  0.72789009  0.98333415     0.02000
H703        H  0.43372789  0.80724127  0.02438566     0.14900
H704        H  0.32229748  0.70879071  0.97317312     0.14900
C705        C  0.37446709  0.69701427  0.96549572     0.36600
C706        C  0.38188188  0.81951642  0.03119744     0.36500
N707        N  0.37230989  0.67220559  0.95110304    -0.43800
N708        N  0.38425979  0.84467221  0.04484643    -0.43700
C709        C  0.16195654  0.76256077  0.00435171    -0.00200
C710        C  0.13100421  0.73077991  0.99741732    -0.12000
C711        C  0.09828180  0.72841024  0.99846846     0.02100
C712        C  0.09585497  0.75855657  0.00617889    -0.00200
C713        C  0.12673727  0.79028123  0.01342794    -0.12000
C714        C  0.15944261  0.79253038  0.01298789     0.02000
H715        H  0.13219079  0.70740114  0.99101097     0.14900
H716        H  0.12543356  0.81356979  0.02006559     0.14900
C717        C  0.18939951  0.82583443  0.02294423     0.36600
C718        C  0.06799660  0.69457420  0.99115391     0.36500
N719        N  0.21285508  0.85277177  0.03142675    -0.43800
N720        N  0.04386464  0.66734695  0.98543141    -0.43700
C721        C  0.00121632  0.75687021  0.88390238    -0.00200
C722        C  0.03013992  0.78339820  0.86367393    -0.12000
C723        C  0.03214136  0.78376766  0.82155083     0.02100
C724        C  0.00450548  0.75725080  0.79867504    -0.00200
C725        C  0.47867884  0.72403388  0.80849180    -0.12000
C726        C  0.47600438  0.72333764  0.85055818     0.02000
H727        H  0.05157696  0.80376288  0.88088980     0.14900
H728        H  0.45886619  0.70241780  0.79098621     0.14900
C729        C  0.44636251  0.69375123  0.86867965     0.36600
C730        C  0.06248705  0.81221743  0.80290185     0.36500
N731        N  0.42258862  0.66988635  0.88294713    -0.43800
N732        N  0.08689340  0.83508214  0.78819077    -0.43700
C733        C  0.40361892  0.99175370  0.99444578    -0.00200
C734        C  0.37284608  0.95955303  0.99924208    -0.12000
C735        C  0.34003272  0.95705260  0.99954518     0.02100
C736        C  0.33735472  0.98748303  0.99555752    -0.00200
C737        C  0.37676036  0.52849857  0.98520938    -0.12000
C738        C  0.40871510  0.52927469  0.98151040     0.02000
H739        H  0.37430583  0.93601788  0.00332388     0.14900
H740        H  0.37654317  0.55283425  0.98349527     0.14900
C741        C  0.43961700  0.56273828  0.97502152     0.36600
C742        C  0.31003325  0.92271806  0.00422793     0.36500
N743        N  0.46428776  0.58961137  0.96977882    -0.43800
N744        N  0.28645117  0.89485657  0.00769977    -0.43700
C745        C  0.15091604  0.98746733  0.00766110    -0.00200
C746        C  0.15718170  0.52557886  0.02025996    -0.12000
C747        C  0.12550646  0.52569433  0.02076089     0.02100
C748        C  0.08823705  0.99033593  0.00442014    -0.00200
C749        C  0.08732995  0.95839141  0.00934212    -0.12000
C750        C  0.11802814  0.95663099  0.01121381     0.02000
H751        H  0.17987558  0.54630411  0.03545761     0.14900
H752        H  0.06242975  0.93443995  0.01181736     0.14900
C753        C  0.11449002  0.92269319  0.01709300     0.36600
C754        C  0.12404468  0.55293811  0.04308987     0.36500
N755        N  0.11144008  0.89542945  0.02190083    -0.43800
N756        N  0.12284489  0.57464606  0.06121765    -0.43700
C757        C  0.99831294  0.99322395  0.87342607    -0.00200
C758        C  0.01352246  0.53035075  0.85118380    -0.12000
C759        C  0.01384379  0.53258201  0.80903233     0.02100
C760        C  0.00049409  0.99834387  0.78823108    -0.00200
C761        C  0.48124148  0.97543060  0.81153349    -0.12000
C762        C  0.47859648  0.97277218  0.85343530     0.02000
H763        H  0.01920569  0.55321527  0.86883118     0.14900
H764        H  0.46085291  0.95497099  0.79329096     0.14900
C765        C  0.44794929  0.94330991  0.87026171     0.36600
C766        C  0.02120610  0.56501415  0.79041147     0.36500
N767        N  0.42333701  0.91968066  0.88357747    -0.43800
N768        N  0.02689864  0.59088449  0.77535501    -0.43700
C769        C  0.23664747  0.73557912  0.45752117    -0.00200
C770        C  0.26211673  0.73142152  0.47842004    -0.12000
C771        C  0.26492198  0.73411195  0.52057928     0.02100
C772        C  0.24182512  0.74094340  0.54285182    -0.00200
C773        C  0.21561986  0.74387474  0.52225872    -0.12000
C774        C  0.21288289  0.74142598  0.48013774     0.02000
H775        H  0.28034556  0.72658346  0.46178084     0.14900
H776        H  0.19744932  0.74864899  0.53915282     0.14900
C777        C  0.18501484  0.74452652  0.46132639     0.36600
C778        C  0.29087366  0.72845268  0.54029439     0.36500
N779        N  0.16265525  0.74705282  0.44641029    -0.43800
N780        N  0.31153251  0.72372716  0.55612021    -0.43700
C781        C  0.24601806  0.74603825  0.20922101    -0.00200
C782        C  0.21581758  0.73541947  0.18585513    -0.12000
C783        C  0.21796414  0.73980285  0.14398349     0.02100
C784        C  0.25087797  0.75591955  0.12500375    -0.00200
C785        C  0.28121402  0.76745139  0.14840288    -0.12000
C786        C  0.27900663  0.76234522  0.19028026     0.02000
H787        H  0.19046506  0.72332537  0.20033280     0.14900
H788        H  0.30653844  0.77980881  0.13385925     0.14900
C789        C  0.31091645  0.77508825  0.21335080     0.36600
C790        C  0.18610233  0.72815560  0.12110016     0.36500
N791        N  0.33644635  0.78535787  0.23192745    -0.43800
N792        N  0.16064003  0.71889285  0.10268031    -0.43700
C793        C  0.25419129  0.00388593  0.46016298    -0.00200
C794        C  0.22454213  0.00183155  0.47827824    -0.12000
C795        C  0.22072699  0.00024396  0.52023852     0.02100
C796        C  0.24724700  0.00111705  0.54511557    -0.00200
C797        C  0.27765353  0.49865986  0.52304576    -0.12000
C798        C  0.27984843  0.49873924  0.48104389     0.02000
H799        H  0.20392202  0.00092583  0.45951240     0.14900
H800        H  0.29290553  0.49049329  0.54095954     0.14900
C801        C  0.30311128  0.48822394  0.46372429     0.36600
C802        C  0.18969721  0.99857180  0.53665875     0.36500
N803        N  0.32174164  0.47968121  0.45009012    -0.43800
N804        N  0.16477860  0.99721167  0.54967180    -0.43700
C805        C  0.24739349  0.99007449  0.12681433    -0.00200
C806        C  0.24756632  0.96324836  0.14915879    -0.12000
C807        C  0.24939335  0.96465901  0.19141870     0.02100
C808        C  0.25144850  0.99359949  0.21210898    -0.00200
C809        C  0.25885675  0.53145208  0.18697776    -0.12000
C810        C  0.25741094  0.53085844  0.14482298     0.02000
H811        H  0.24648328  0.94118874  0.13358397     0.14900
H812        H  0.25842827  0.55257682  0.20303245     0.14900
C813        C  0.25391840  0.55787570  0.12467604     0.36600
C814        C  0.24746817  0.93530823  0.21268204     0.36500
N815        N  0.25100463  0.57947449  0.10859938    -0.43800
N816        N  0.24564394  0.91166950  0.22973504    -0.43700
C817        C  0.00633858  0.75273230  0.46549014    -0.00200
C818        C  0.98164664  0.75821558  0.48588327    -0.12000
C819        C  0.98052164  0.75837621  0.52799967     0.02100
C820        C  0.00461258  0.75315682  0.55066794    -0.00200
C821        C  0.54146698  0.76468584  0.52065000    -0.12000
C822        C  0.54333886  0.76548163  0.47853171     0.02000
H823        H  0.96298038  0.76231473  0.46890468     0.14900
H824        H  0.56364477  0.76756263  0.53795418     0.14900
C825        C  0.57558562  0.77211041  0.45993284     0.36600
C826        C  0.95532899  0.76540006  0.54708598     0.36500
N827        N  0.60154923  0.77767601  0.44515024    -0.43800
N828        N  0.93522283  0.77112152  0.56238616    -0.43700
C829        C  0.41950686  0.66527630  0.33528021    -0.00200
C830        C  0.41897040  0.63484563  0.32215361    -0.12000
C831        C  0.38795728  0.60265650  0.32155191     0.02100
C832        C  0.35634150  0.60042508  0.33414426    -0.00200
C833        C  0.35701567  0.63076088  0.34793563    -0.12000
C834        C  0.38810383  0.66286102  0.34897733     0.02000
H835        H  0.44284226  0.63622175  0.31162535     0.14900
H836        H  0.33316613  0.62937533  0.35856085     0.14900
C837        C  0.38700183  0.69241762  0.36570019     0.36600
C838        C  0.38949039  0.57278095  0.30672900     0.36500
N839        N  0.38607337  0.71600671  0.37930155    -0.43800
N840        N  0.39088528  0.54891782  0.29491672    -0.43700
C841        C  0.16167580  0.91031975  0.33925299    -0.00200
C842        C  0.16030905  0.88041315  0.32298177    -0.12000
C843        C  0.12930131  0.84836716  0.32286562     0.02100
C844        C  0.09877574  0.84568426  0.33990060    -0.00200
C845        C  0.10006017  0.87568251  0.35589607    -0.12000
C846        C  0.13107445  0.90783414  0.35573505     0.02000
H847        H  0.18350361  0.88216872  0.30957627     0.14900
H848        H  0.07683164  0.87395730  0.36913762     0.14900
C849        C  0.13085697  0.93736414  0.37394699     0.36600
C850        C  0.12946376  0.81922419  0.30349385     0.36500
N851        N  0.13057692  0.96095442  0.38856599    -0.43800
N852        N  0.12968212  0.79598969  0.28780630    -0.43700
C853        C  0.00505811  0.75829197  0.13183637    -0.00200
C854        C  0.50793750  0.72963205  0.14175662    -0.12000
C855        C  0.51058580  0.72922800  0.18384265     0.02100
C856        C  0.00638369  0.75508992  0.21695708    -0.00200
C857        C  0.00009961  0.77968239  0.19753503    -0.12000
C858        C  0.99967801  0.78165613  0.15546190     0.02000
H859        H  0.50884835  0.70946122  0.12413440     0.14900
H860        H  0.99552121  0.79759144  0.21524275     0.14900
C861        C  0.99234182  0.80700814  0.13744096     0.36600
C862        C  0.51332765  0.70104848  0.20198753     0.36500
N863        N  0.98646793  0.82734720  0.12307379    -0.43800
N864        N  0.51551354  0.67841089  0.21637759    -0.43700
C865        C  0.99665795  0.99845496  0.45450652    -0.00200
C866        C  0.47553886  0.99707581  0.48056526    -0.12000
C867        C  0.47760236  0.00152322  0.52243203     0.02100
C868        C  0.99683204  0.00130803  0.53975188    -0.00200
C869        C  0.02425880  0.49222604  0.51776691    -0.12000
C870        C  0.02259894  0.48742669  0.47583420     0.02000
H871        H  0.45708417  0.00169155  0.46386885     0.14900
H872        H  0.04378569  0.48972914  0.53507189     0.14900
C873        C  0.04785992  0.48014458  0.45746198     0.36600
C874        C  0.45534527  0.01255945  0.54140687     0.36500
N875        N  0.06810134  0.47420663  0.44293485    -0.43800
N876        N  0.43750712  0.02139995  0.55657867    -0.43700
C877        C  0.33213056  0.83008869  0.33652826    -0.00200
C878        C  0.36301911  0.82837989  0.33417711    -0.12000
C879        C  0.39586896  0.85846214  0.33368576     0.02100
C880        C  0.39854697  0.89162600  0.33595102    -0.00200
C881        C  0.36765112  0.89335452  0.33818978    -0.12000
C882        C  0.33475333  0.86322441  0.33836414     0.02000
H883        H  0.36168826  0.80329472  0.33231704     0.14900
H884        H  0.36902474  0.91846500  0.33979157     0.14900
C885        C  0.30449108  0.86757254  0.34037992     0.36600
C886        C  0.42597914  0.85395932  0.33032164     0.36500
N887        N  0.28036511  0.87125904  0.34189404    -0.43800
N888        N  0.44991446  0.85006287  0.32754417    -0.43700
C889        C  0.14682475  0.64360746  0.32643547    -0.00200
C890        C  0.14712897  0.61367255  0.33982804    -0.12000
C891        C  0.11665391  0.58108198  0.34000629     0.02100
C892        C  0.08480949  0.57788817  0.32632541    -0.00200
C893        C  0.08460710  0.60771960  0.31235815    -0.12000
C894        C  0.11511049  0.64030161  0.31211431     0.02000
H895        H  0.17121345  0.61578488  0.35108265     0.14900
H896        H  0.06049134  0.60559320  0.30119405     0.14900
C897        C  0.11303209  0.66946934  0.29587972     0.36600
C898        C  0.11888045  0.55187370  0.35587210     0.36500
N899        N  0.11121716  0.69272180  0.28275960    -0.43800
N900        N  0.12081753  0.52857420  0.36861031    -0.43700
C901        C  0.49131173  0.98888274  0.12591079    -0.00200
C902        C  0.98703545  0.45979056  0.13863940    -0.12000
C903        C  0.98482970  0.45663266  0.18066036     0.02100
C904        C  0.49029760  0.98426750  0.21116487    -0.00200
C905        C  0.49223743  0.01342546  0.19198512    -0.12000
C906        C  0.49281016  0.01601685  0.14991195     0.02000
H907        H  0.98289738  0.43752110  0.12077423     0.14900
H908        H  0.49376130  0.03460167  0.20998524     0.14900
C909        C  0.49404089  0.04647290  0.13245240     0.36600
C910        C  0.97552566  0.42333079  0.19836085     0.36500
N911        N  0.49497338  0.07087845  0.11854480    -0.43800
N912        N  0.96784567  0.39657938  0.21250582    -0.43700
O913        O  0.50083268  0.47421130  0.26179819    -0.73000
O914        O  0.50422671  0.47807485  0.38194591    -0.73900
O915        O  0.96125491  0.42545457  0.33016554    -0.62600
O916        O  0.55236379  0.01408102  0.33421385    -0.71000
O917        O  0.52368175  0.04317821  0.33593383    -0.70500
O918        O  0.93218243  0.45415300  0.32981348    -0.61800
O919        O  0.97861599  0.00839156  0.39035387    -0.74300
O920        O  0.97285746  0.00084053  0.26978419    -0.73100
Cu921      Cu  0.50339794  0.47526604  0.32200157     1.04600
Cu922      Cu  0.97466393  0.00561732  0.33006392     1.04300
C923        C  0.98993535  0.48405170  0.24903210     0.93200
C924        C  0.49467920  0.98469199  0.41519892     0.92400
C925        C  0.93233813  0.42537893  0.33049503     0.84500
C926        C  0.55246768  0.04294822  0.33533602     0.90800
O927        O  0.98147186  0.20059002  0.33493660    -0.73000
O928        O  0.56808446  0.28056376  0.33189012    -0.73900
O929        O  0.52402891  0.23481281  0.39271927    -0.62600
O930        O  0.52149915  0.23566725  0.27173685    -0.71000
O931        O  0.99663642  0.27358075  0.27236440    -0.70500
O932        O  0.99734983  0.27513785  0.39302797    -0.61800
O933        O  0.53899857  0.30921645  0.33406771    -0.74300
O934        O  0.95218453  0.22905751  0.33342833    -0.73100
Cu935      Cu  0.52373230  0.23421563  0.33215301     1.04600
Cu936      Cu  0.99608423  0.27543095  0.33270849     1.04300
C937        C  0.95245495  0.20039374  0.33491748     0.93200
C938        C  0.56792497  0.30932312  0.33282469     0.92400
C939        C  0.50984501  0.24904040  0.41279533     0.84500
C940        C  0.50712680  0.25075978  0.25362457     0.90800
O941        O  0.77018981  0.48555227  0.27913640    -0.70600
O942        O  0.77008121  0.48966333  0.39988625    -0.73900
O943        O  0.72517709  0.44277305  0.34003421    -0.62600
O944        O  0.82277053  0.03833547  0.33809005    -0.71000
O945        O  0.79442850  0.06772928  0.33615622    -0.70500
O946        O  0.69627204  0.47160607  0.33671164    -0.61800
O947        O  0.74715079  0.02311443  0.39551836    -0.74300
O948        O  0.75003917  0.02251325  0.27476532    -0.73100
Cu949      Cu  0.77129986  0.48671593  0.33961328     1.04600
Cu950      Cu  0.74785467  0.02400673  0.33505352     1.04300
C951        C  0.75574980  0.49947893  0.25882660     0.93200
C952        C  0.75550493  0.50456506  0.41783368     0.92400
C953        C  0.69633265  0.44281925  0.33804479     0.84500
C954        C  0.82314664  0.06733389  0.33716193     0.90800
O955        O  0.79974821  0.26743966  0.33382348    -0.73000
O956        O  0.71008441  0.17668012  0.33679148    -0.73900
O957        O  0.75349753  0.22102520  0.27459472    -0.62600
O958        O  0.75629569  0.22371396  0.39630107    -0.71000
O959        O  0.72645856  0.25167075  0.39534948    -0.70500
O960        O  0.72455886  0.24994020  0.27530870    -0.61800
O961        O  0.68064994  0.20502270  0.33626552    -0.74300
O962        O  0.77044894  0.29592148  0.33423259    -0.73100
Cu963      Cu  0.75592119  0.22115771  0.33542529     1.04600
Cu964      Cu  0.72447665  0.25153081  0.33533137     1.04300
C965        C  0.79943348  0.29611375  0.33332295     0.93200
C966        C  0.68103027  0.17638207  0.33648594     0.92400
C967        C  0.73892002  0.23563765  0.25578212     0.84500
C968        C  0.74163845  0.23823097  0.41503822     0.90800
O969        O  0.51557076  0.02582863  0.94291401    -0.73000
O970        O  0.50816421  0.02038235  0.06355109    -0.73900
O971        O  0.55748259  0.02454989  0.00638787    -0.62600
O972        O  0.96456899  0.01883457  0.99533852    -0.71000
O973        O  0.94131253  0.46520983  0.99258295    -0.70500
O974        O  0.53018648  0.46321413  0.99091091    -0.61800
O975        O  0.98501268  0.46485976  0.05437082    -0.74300
O976        O  0.98945613  0.46851027  0.93390218    -0.73100
Cu977      Cu  0.51277147  0.02515995  0.00333015     1.04600
Cu978      Cu  0.98641076  0.46477426  0.99413441     1.04300
C979        C  0.50658285  0.49728144  0.90869855     0.93200
C980        C  0.99727633  0.49305220  0.07478967     0.92400
C981        C  0.55941087  0.49149992  0.99450302     0.84500
C982        C  0.94065359  0.49371147  0.99280129     0.90800
O983        O  0.55940663  0.28328825  0.99734920    -0.73000
O984        O  0.96802746  0.28268666  0.00090398    -0.73900
O985        O  0.51825452  0.28643004  0.06040642    -0.62600
O986        O  0.51395311  0.28612184  0.93934650    -0.71000
O987        O  0.98240282  0.22473137  0.93961245    -0.70500
O988        O  0.98919408  0.22731264  0.06028723    -0.61800
O989        O  0.94024710  0.22506255  0.00312544    -0.74300
O990        O  0.52819207  0.22569827  0.99700915    -0.73100
Cu991      Cu  0.51718796  0.28839845  0.99987610     1.04600
Cu992      Cu  0.98482617  0.22402876  0.99995096     1.04300
C993        C  0.55781766  0.25370324  0.99647804     0.93200
C994        C  0.93953471  0.25350161  0.00249787     0.92400
C995        C  0.50350636  0.25749757  0.07941423     0.84500
C996        C  0.49744088  0.25714607  0.92034583     0.90800
O997        O  0.78045991  0.46182598  0.00600574    -0.73000
O998        O  0.68901692  0.45972233  0.00428732    -0.73900
O999        O  0.73470814  0.45970279  0.94439862    -0.62600
O1000       O  0.73542203  0.46283031  0.06626953    -0.71000
O1001       O  0.76572878  0.02479652  0.06095169    -0.70500
O1002       O  0.75635978  0.01850270  0.94146342    -0.61800
O1003       O  0.71685586  0.02318167  0.00483898    -0.74300
O1004       O  0.80503165  0.01929086  0.99735741    -0.73100
Cu1005     Cu  0.73388487  0.45893816  0.00539229     1.04600
Cu1006     Cu  0.76205940  0.02337514  0.00101447     1.04300
C1007       C  0.80899684  0.49090632  0.00432154     0.93200
C1008       C  0.68850011  0.48826484  0.00347607     0.92400
C1009       C  0.74853636  0.48846157  0.92496507     0.84500
C1010       C  0.75000003  0.49244132  0.08421087     0.90800
O1011       O  0.73198556  0.22104189  0.05999280    -0.73000
O1012       O  0.73682274  0.22915995  0.94008663    -0.73900
O1013       O  0.78024705  0.22598049  0.00092945    -0.62600
O1014       O  0.68913123  0.22511608  0.99871301    -0.71000
O1015       O  0.71820334  0.28264935  0.00305096    -0.70500
O1016       O  0.80846533  0.28345015  0.00629834    -0.61800
O1017       O  0.76614383  0.28685581  0.94422734    -0.74300
O1018       O  0.76006412  0.27863686  0.06517709    -0.73100
Cu1019     Cu  0.73359999  0.22332173  0.99977958     1.04600
Cu1020     Cu  0.76423011  0.28489573  0.00493933     1.04300
C1021       C  0.74500643  0.24855157  0.08169740     0.93200
C1022       C  0.75186427  0.25895715  0.92305634     0.92400
C1023       C  0.80892447  0.25496747  0.00392955     0.84500
C1024       C  0.68933004  0.25406372  0.99994541     0.90800
O1025       O  0.53044588  0.46922057  0.65211466    -0.73000
O1026       O  0.53705058  0.06281219  0.66625284    -0.73900
O1027       O  0.53839506  0.01953422  0.72846765    -0.62600
O1028       O  0.53399729  0.01445462  0.60688293    -0.71000
O1029       O  0.97369317  0.48980287  0.60230497    -0.70500
O1030       O  0.97598884  0.48963515  0.72290974    -0.61800
O1031       O  0.96960800  0.03137109  0.66635202    -0.74300
O1032       O  0.97341253  0.44421412  0.66181347    -0.73100
Cu1033     Cu  0.53844620  0.01833009  0.66758449     1.04600
Cu1034     Cu  0.97296088  0.48902900  0.66264672     1.04300
C1035       C  0.50113484  0.44079164  0.65307325     0.93200
C1036       C  0.50844075  0.06330928  0.66796002     0.92400
C1037       C  0.50747013  0.50113302  0.73426061     0.84500
C1038       C  0.49854917  0.50076136  0.57577171     0.90800
O1039       O  0.96819500  0.19166679  0.66470480    -0.73000
O1040       O  0.97186425  0.28373278  0.66399832    -0.73900
O1041       O  0.97262228  0.23902441  0.60399656    -0.62600
O1042       O  0.96763825  0.23694976  0.72488756    -0.71000
O1043       O  0.53224307  0.26968116  0.72798297    -0.70500
O1044       O  0.53594271  0.26416119  0.60741891    -0.61800
O1045       O  0.53349605  0.31158440  0.66279655    -0.74300
O1046       O  0.53470940  0.22208973  0.67229615    -0.73100
Cu1047     Cu  0.96803591  0.23681121  0.66428567     1.04600
Cu1048     Cu  0.53612601  0.26788106  0.66778789     1.04300
C1049       C  0.50594139  0.19309643  0.67165193     0.93200
C1050       C  0.50449661  0.31130254  0.66035936     0.92400
C1051       C  0.50736485  0.24979947  0.58734857     0.84500
C1052       C  0.50271089  0.25539513  0.74580506     0.90800
O1053       O  0.77174867  0.05828811  0.67422181    -0.73000
O1054       O  0.78020426  0.47290829  0.66839487    -0.73900
O1055       O  0.77408819  0.01577714  0.61176173    -0.62600
O1056       O  0.76666512  0.00905655  0.73170768    -0.71000
O1057       O  0.72254337  0.48606353  0.73165692    -0.70500
O1058       O  0.72340528  0.49399509  0.61104690    -0.61800
O1059       O  0.72228370  0.44500759  0.66675706    -0.74300
O1060       O  0.71404916  0.03140783  0.67038325    -0.73100
Cu1061     Cu  0.77228900  0.01339024  0.67190193     1.04600
Cu1062     Cu  0.72100207  0.48930104  0.67136377     1.04300
C1063       C  0.74354337  0.05960935  0.67306154     0.93200
C1064       C  0.75091173  0.44447381  0.66678956     0.92400
C1065       C  0.75253656  0.50830575  0.59238886     0.84500
C1066       C  0.75149775  0.49943402  0.75094191     0.90800
O1067       O  0.71981312  0.24243516  0.72905240    -0.73000
O1068       O  0.71928217  0.23650682  0.60874580    -0.73900
O1069       O  0.71753803  0.19338489  0.67268330    -0.62600
O1070       O  0.72127408  0.28531098  0.66533014    -0.71000
O1071       O  0.77916884  0.31282296  0.66450630    -0.70500
O1072       O  0.77532371  0.22048878  0.67369234    -0.61800
O1073       O  0.77714359  0.26297787  0.60869384    -0.74300
O1074       O  0.77770442  0.27039510  0.72951619    -0.73100
Cu1075     Cu  0.71751691  0.23852227  0.66892455     1.04600
Cu1076     Cu  0.77938978  0.26765454  0.66909270     1.04300
C1077       C  0.74872615  0.25710127  0.74845475     0.93200
C1078       C  0.74805077  0.24847401  0.58960580     0.92400
C1079       C  0.74580108  0.19221019  0.67445735     0.84500
C1080       C  0.75064340  0.31360895  0.66386669     0.90800
C1081       C  0.75018857  0.41070830  0.66531340    -0.00200
C1082       C  0.77819764  0.40920172  0.64747635    -0.12000
C1083       C  0.77886965  0.37792298  0.64597964     0.02100
C1084       C  0.75113001  0.34730987  0.66287400    -0.00200
C1085       C  0.72303461  0.34884593  0.68037539    -0.12000
C1086       C  0.72237311  0.38002632  0.68195001     0.02000
H1087       H  0.79953342  0.43250104  0.63425620     0.14900
H1088       H  0.70176562  0.32569209  0.69392539     0.14900
C1089       C  0.69361279  0.37993163  0.70267369     0.36600
C1090       C  0.80777027  0.37791293  0.62581173     0.36500
N1091       N  0.67061682  0.37982139  0.71939824    -0.43800
N1092       N  0.83093199  0.37801068  0.60951417    -0.43700
C1093       C  0.74490655  0.09392358  0.67477218    -0.00200
C1094       C  0.71416751  0.09470028  0.68345439    -0.12000
C1095       C  0.71376941  0.12615260  0.68458231     0.02100
C1096       C  0.74468059  0.15803596  0.67633485    -0.00200
C1097       C  0.77552420  0.15728285  0.66851146    -0.12000
C1098       C  0.77600030  0.12594138  0.66771100     0.02000
H1099       H  0.69019141  0.07056258  0.68967219     0.14900
H1100       H  0.79953012  0.18135710  0.66217307     0.14900
C1101       C  0.80880396  0.12782295  0.65840073     0.36600
C1102       C  0.68131733  0.12462106  0.69506784     0.36500
N1103       N  0.83520018  0.12956118  0.65097572    -0.43800
N1104       N  0.65527058  0.12323489  0.70358937    -0.43700
C1105       C  0.50070269  0.40693759  0.65293121    -0.00200
C1106       C  0.53232267  0.40731726  0.64635296    -0.12000
C1107       C  0.53423755  0.37675828  0.64779126     0.02100
C1108       C  0.50397641  0.34452839  0.65653112    -0.00200
C1109       C  0.97115628  0.34630798  0.67157167    -0.12000
C1110       C  0.97015900  0.37734114  0.67122999     0.02000
H1111       H  0.55594962  0.43172129  0.64000345     0.14900
H1112       H  0.94740530  0.32218708  0.67850110     0.14900
C1113       C  0.93726528  0.37527723  0.68059581     0.36600
C1114       C  0.56763382  0.37961224  0.63937478     0.36500
N1115       N  0.91082592  0.37342499  0.68810019    -0.43800
N1116       N  0.59444046  0.38207928  0.63247622    -0.43700
C1117       C  0.50880695  0.09706357  0.66922622    -0.00200
C1118       C  0.96657142  0.09330891  0.66173409    -0.12000
C1119       C  0.96495985  0.12410017  0.66170274     0.02100
C1120       C  0.50658794  0.15992157  0.67277946    -0.00200
C1121       C  0.53666932  0.15987883  0.65929641    -0.12000
C1122       C  0.53813421  0.12905978  0.65750622     0.02000
H1123       H  0.94267384  0.06868251  0.65688247     0.14900
H1124       H  0.55907445  0.18401779  0.64929828     0.14900
C1125       C  0.56989980  0.13132662  0.64264899     0.36600
C1126       C  0.93116533  0.12101724  0.65534108     0.36500
N1127       N  0.59548452  0.13339030  0.63084199    -0.43800
N1128       N  0.90396558  0.11827535  0.65026610    -0.43700
C1129       C  0.75148644  0.26039483  0.87847943    -0.00200
C1130       C  0.72254894  0.23377687  0.85806648    -0.12000
C1131       C  0.72079245  0.23249866  0.81602978     0.02100
C1132       C  0.74869960  0.25830783  0.79316597    -0.00200
C1133       C  0.77760289  0.28521093  0.81358054    -0.12000
C1134       C  0.77915273  0.28661139  0.85583994     0.02000
H1135       H  0.70097787  0.21352439  0.87519102     0.14900
H1136       H  0.79926186  0.30527246  0.79640115     0.14900
C1137       C  0.81000851  0.31426430  0.87502000     0.36600
C1138       C  0.69061094  0.20345990  0.79749083     0.36500
N1139       N  0.83478363  0.33642219  0.89032451    -0.43800
N1140       N  0.66637651  0.18014112  0.78281476    -0.43700
C1141       C  0.74952156  0.48935794  0.88014873    -0.00200
C1142       C  0.75757470  0.02069994  0.85824708    -0.12000
C1143       C  0.75702947  0.02285845  0.81632869     0.02100
C1144       C  0.75142887  0.49634633  0.79524428    -0.00200
C1145       C  0.72818804  0.46440768  0.81340991    -0.12000
C1146       C  0.72735626  0.46048820  0.85544972     0.02000
H1147       H  0.77462558  0.04420564  0.87510560     0.14900
H1148       H  0.71087661  0.44231963  0.79462401     0.14900
C1149       C  0.70329570  0.42673235  0.87203272     0.36600
C1150       C  0.77806159  0.05651849  0.79767551     0.36500
N1151       N  0.68414436  0.39953484  0.88510364    -0.43800
N1152       N  0.79472033  0.08345540  0.78265361    -0.43700
C1153       C  0.90570970  0.25301644  0.00341656    -0.00200
C1154       C  0.90617808  0.28460826  0.00973875    -0.12000
C1155       C  0.87536257  0.28615216  0.01004840     0.02100
C1156       C  0.84272144  0.25530913  0.00431016    -0.00200
C1157       C  0.84227682  0.22370316  0.99813973    -0.12000
C1158       C  0.87314167  0.22225647  0.99735247     0.02000
H1159       H  0.93086299  0.30850125  0.01439728     0.14900
H1160       H  0.81763634  0.19981756  0.99328661     0.14900
C1161       C  0.87020670  0.18887818  0.98900586     0.36600
C1162       C  0.87860651  0.31996122  0.01613278     0.36500
N1163       N  0.86765923  0.16207540  0.98217439    -0.43800
N1164       N  0.88148429  0.34716959  0.02087148    -0.43700
C1165       C  0.65591400  0.25440066  0.99770859    -0.00200
C1166       C  0.62427897  0.22246176  0.99785437    -0.12000
C1167       C  0.59199574  0.22120296  0.99665068     0.02100
C1168       C  0.59084562  0.25256831  0.99549107    -0.00200
C1169       C  0.62249562  0.28440685  0.99431273    -0.12000
C1170       C  0.65467805  0.28569459  0.99528084     0.02000
H1171       H  0.62461120  0.19818923  0.99921214     0.14900
H1172       H  0.62232353  0.30876096  0.99285185     0.14900
C1173       C  0.68565104  0.31977103  0.99349351     0.36600
C1174       C  0.56083553  0.18725220  0.99683962     0.36500
N1175       N  0.71028003  0.34717825  0.99201476    -0.43800
N1176       N  0.53599972  0.15994928  0.99690920    -0.43700
C1177       C  0.49710296  0.25682369  0.87552492    -0.00200
C1178       C  0.52348938  0.28573582  0.85498799    -0.12000
C1179       C  0.52574772  0.28602797  0.81288190     0.02100
C1180       C  0.50110780  0.25696944  0.79028547    -0.00200
C1181       C  0.96973695  0.22350175  0.81058515    -0.12000
C1182       C  0.96899379  0.22299212  0.85280878     0.02000
H1183       H  0.54287991  0.30810769  0.87188226     0.14900
H1184       H  0.95096788  0.20064671  0.79384010     0.14900
C1185       C  0.94203087  0.19210171  0.87227678     0.36600
C1186       C  0.55299192  0.31693475  0.79372200     0.36500
N1187       N  0.92036590  0.16733111  0.88779263    -0.43800
N1188       N  0.57477882  0.34176593  0.77843521    -0.43700
C1189       C  0.90680160  0.49271808  0.99402010    -0.00200
C1190       C  0.87981739  0.46685135  0.01722418    -0.12000
C1191       C  0.84798537  0.46608724  0.02168448     0.02100
C1192       C  0.84260029  0.49137450  0.00218007    -0.00200
C1193       C  0.86873717  0.02079472  0.99840247    -0.12000
C1194       C  0.90091878  0.02204841  0.99772163     0.02000
H1195       H  0.88397647  0.44773949  0.03292883     0.14900
H1196       H  0.86849392  0.04502712  0.00178582     0.14900
C1197       C  0.93187479  0.05597599  0.00161955     0.36600
C1198       C  0.82207455  0.44014277  0.04800862     0.36500
N1199       N  0.95652910  0.08324820  0.00474586    -0.43800
N1200       N  0.80142122  0.41946223  0.06927448    -0.43700
C1201       C  0.65476975  0.48770027  0.00202917    -0.00200
C1202       C  0.65297890  0.02229307  0.98917110    -0.12000
C1203       C  0.62178953  0.02307868  0.98757277     0.02100
C1204       C  0.59212680  0.49020814  0.99850780    -0.00200
C1205       C  0.59432103  0.46290321  0.97984511    -0.12000
C1206       C  0.62526655  0.46148544  0.98126868     0.02000
H1207       H  0.67556651  0.04188191  0.97296525     0.14900
H1208       H  0.57207328  0.44307325  0.96312374     0.14900
C1209       C  0.62644980  0.43389144  0.95937367     0.36600
C1210       C  0.62074963  0.04971922  0.96348177     0.36500
N1211       N  0.62734392  0.41181940  0.94169597    -0.43800
N1212       N  0.61989664  0.07098480  0.94406502    -0.43700
C1213       C  0.50889122  0.49919965  0.86378627    -0.00200
C1214       C  0.53316439  0.02771777  0.85922099    -0.12000
C1215       C  0.53592433  0.03021484  0.81707435     0.02100
C1216       C  0.50929972  0.50002235  0.77845477    -0.00200
C1217       C  0.99776076  0.47172878  0.80452515    -0.12000
C1218       C  0.99754093  0.46934017  0.84662318     0.02000
H1219       H  0.55338958  0.04813267  0.87764769     0.14900
H1220       H  0.99174083  0.44904456  0.78626621     0.14900
C1221       C  0.98987411  0.43631846  0.86380458     0.36600
C1222       C  0.56531296  0.06057977  0.79976125     0.36500
N1223       N  0.98373017  0.40977653  0.87732591    -0.43800
N1224       N  0.58889292  0.08496570  0.78600133    -0.43700
C1225       C  0.74259757  0.24005255  0.45978719    -0.00200
C1226       C  0.77020136  0.23971917  0.48063570    -0.12000
C1227       C  0.77285462  0.24273561  0.52277860     0.02100
C1228       C  0.74721638  0.24572111  0.54500284    -0.00200
C1229       C  0.71940846  0.24554127  0.52419637    -0.12000
C1230       C  0.71693675  0.24294181  0.48217526     0.02000
H1231       H  0.79007998  0.23754980  0.46394331     0.14900
H1232       H  0.69953065  0.24776315  0.54084351     0.14900
C1233       C  0.68723058  0.24254974  0.46322421     0.36600
C1234       C  0.80158689  0.24167321  0.54231163     0.36500
N1235       N  0.66343549  0.24232681  0.44817497    -0.43800
N1236       N  0.82462937  0.24081420  0.55790583    -0.43700
C1237       C  0.73956635  0.23754831  0.21114265    -0.00200
C1238       C  0.73972304  0.26629551  0.19301025    -0.12000
C1239       C  0.74132854  0.27038028  0.15113943     0.02100
C1240       C  0.74277470  0.24526124  0.12623562    -0.00200
C1241       C  0.74173773  0.21601684  0.14427424    -0.12000
C1242       C  0.74024659  0.21200075  0.18627597     0.02000
H1243       H  0.73895197  0.28600791  0.21168255     0.14900
H1244       H  0.74241453  0.19630700  0.12551211     0.14900
C1245       C  0.73827755  0.18090605  0.20277633     0.36600
C1246       C  0.74024038  0.30002589  0.13472929     0.36500
N1247       N  0.73658294  0.15589661  0.21587526    -0.43800
N1248       N  0.73926654  0.32375775  0.12169591    -0.43700
C1249       C  0.75551914  0.50616931  0.46256799    -0.00200
C1250       C  0.72922633  0.50978888  0.48193239    -0.12000
C1251       C  0.72775880  0.51088440  0.52407658     0.02100
C1252       C  0.75324507  0.50872873  0.54777076    -0.00200
C1253       C  0.77702002  0.00217109  0.52814632    -0.12000
C1254       C  0.78125178  0.00311076  0.48624776     0.02000
H1255       H  0.70943364  0.51139031  0.46411196     0.14900
H1256       H  0.79503962  0.99874616  0.54731526     0.14900
C1257       C  0.81014536  0.00016274  0.47064617     0.36600
C1258       C  0.70042191  0.51519872  0.54202926     0.36500
N1259       N  0.83331539  0.99772117  0.45836342    -0.43800
N1260       N  0.67852332  0.51870907  0.55633705    -0.43700
C1261       C  0.75096187  0.49445241  0.12899379    -0.00200
C1262       C  0.74703624  0.46576220  0.15135072    -0.12000
C1263       C  0.74869830  0.46683219  0.19357570     0.02100
C1264       C  0.75438144  0.49710603  0.21431716    -0.00200
C1265       C  0.76153727  0.03103803  0.19001840    -0.12000
C1266       C  0.75848272  0.02941559  0.14795172     0.02000
H1267       H  0.74279979  0.44239427  0.13583496     0.14900
H1268       H  0.76359015  0.05347480  0.20575334     0.14900
C1269       C  0.75726514  0.05762213  0.12758609     0.36600
C1270       C  0.74284555  0.43593434  0.21485045     0.36500
N1271       N  0.75628707  0.08026569  0.11140735    -0.43800
N1272       N  0.73796953  0.41113498  0.23193835    -0.43700
C1273       C  0.51005272  0.24882028  0.45770700    -0.00200
C1274       C  0.48909288  0.25955157  0.47800939    -0.12000
C1275       C  0.48795927  0.26001749  0.52006747     0.02100
C1276       C  0.50820390  0.24976913  0.54296167    -0.00200
C1277       C  0.03350330  0.25678589  0.52303073    -0.12000
C1278       C  0.03706584  0.25936485  0.48106644     0.02000
H1279       H  0.47336245  0.26767042  0.46105284     0.14900
H1280       H  0.05343373  0.25556375  0.54099206     0.14900
C1281       C  0.06820915  0.26201118  0.46368140     0.36600
C1282       C  0.46690848  0.27254832  0.53902314     0.36500
N1283       N  0.09327860  0.26436014  0.44979005    -0.43800
N1284       N  0.45019020  0.28271093  0.55427278    -0.43700
C1285       C  0.91913256  0.16661475  0.33638934    -0.00200
C1286       C  0.91980346  0.13582435  0.32813924    -0.12000
C1287       C  0.88924735  0.10324534  0.32851450     0.02100
C1288       C  0.85678941  0.10088130  0.33726931    -0.00200
C1289       C  0.85621155  0.13164425  0.34598505    -0.12000
C1290       C  0.88676940  0.16417619  0.34583476     0.02000
H1291       H  0.94433489  0.13712164  0.32082765     0.14900
H1292       H  0.83170098  0.13037628  0.35332882     0.14900
C1293       C  0.88383810  0.19424475  0.35647627     0.36600
C1294       C  0.89229810  0.07307486  0.31885494     0.36500
N1295       N  0.88133988  0.21822917  0.36508440    -0.43800
N1296       N  0.89498252  0.04903614  0.31114157    -0.43700
C1297       C  0.66306153  0.40909818  0.33653098    -0.00200
C1298       C  0.66408630  0.37912142  0.32478540    -0.12000
C1299       C  0.63368082  0.34650260  0.32270927     0.02100
C1300       C  0.60114479  0.34321062  0.33311618    -0.00200
C1301       C  0.60010479  0.37329912  0.34436158    -0.12000
C1302       C  0.63044436  0.40595625  0.34602826     0.02000
H1303       H  0.68878916  0.38116578  0.31655899     0.14900
H1304       H  0.57542732  0.37137907  0.35241067     0.14900
C1305       C  0.62705634  0.43538615  0.35847032     0.36600
C1306       C  0.63688014  0.31735577  0.30864240     0.36500
N1307       N  0.62413635  0.45886086  0.36835074    -0.43800
N1308       N  0.63963597  0.29415826  0.29720782    -0.43700
C1309       C  0.50540069  0.25686402  0.12399585    -0.00200
C1310       C  0.00877201  0.23152973  0.14357874    -0.12000
C1311       C  0.01076762  0.23129564  0.18573932     0.02100
C1312       C  0.50694279  0.25222753  0.20901479    -0.00200
C1313       C  0.50769147  0.28112882  0.19053532    -0.12000
C1314       C  0.50720512  0.28381735  0.14851853     0.02000
H1315       H  0.00996515  0.21130405  0.12640431     0.14900
H1316       H  0.50881558  0.30187875  0.20902428     0.14900
C1317       C  0.50736178  0.31395142  0.13166409     0.36600
C1318       C  0.01327865  0.20320490  0.20450922     0.36500
N1319       N  0.50752441  0.33815660  0.11828605    -0.43800
N1320       N  0.01527503  0.18064936  0.21944045    -0.43700
C1321       C  0.49344728  0.49544220  0.44602263    -0.00200
C1322       C  0.97366826  0.49788451  0.47311825    -0.12000
C1323       C  0.97512564  0.50228103  0.51497244     0.02100
C1324       C  0.49620814  0.49941831  0.53126488    -0.00200
C1325       C  0.52311784  0.98614617  0.52472157    -0.12000
C1326       C  0.52060084  0.98095216  0.48284813     0.02000
H1327       H  0.95399677  0.50040483  0.45617803     0.14900
H1328       H  0.54135308  0.98152680  0.54192296     0.14900
C1329       C  0.54290620  0.96969745  0.46451026     0.36600
C1330       C  0.95087265  0.51092998  0.53346241     0.36500
N1331       N  0.56069515  0.96046900  0.45002886    -0.43800
N1332       N  0.93145763  0.51791702  0.54820071    -0.43700
C1333       C  0.83305910  0.32953004  0.33205454    -0.00200
C1334       C  0.86387487  0.32929766  0.34207682    -0.12000
C1335       C  0.89639025  0.35987386  0.34182599     0.02100
C1336       C  0.89868474  0.39192269  0.33129555    -0.00200
C1337       C  0.86788057  0.39211748  0.32102754    -0.12000
C1338       C  0.83536608  0.36148416  0.32111522     0.02000
H1339       H  0.86263981  0.30508110  0.35067217     0.14900
H1340       H  0.86913854  0.41632330  0.31234934     0.14900
C1341       C  0.80521508  0.36382487  0.30871936     0.36600
C1342       C  0.92655612  0.35726438  0.35344632     0.36500
N1343       N  0.78116273  0.36584662  0.29870385    -0.43800
N1344       N  0.95058502  0.35493612  0.36275657    -0.43700
C1345       C  0.64779915  0.14251669  0.33626411    -0.00200
C1346       C  0.64848009  0.11227566  0.34764188    -0.12000
C1347       C  0.61803830  0.07957804  0.34760933     0.02100
C1348       C  0.58584743  0.07659027  0.33577106    -0.00200
C1349       C  0.58519477  0.10680472  0.32442965    -0.12000
C1350       C  0.61555834  0.13944023  0.32445554     0.02000
H1351       H  0.67290612  0.11414084  0.35706479     0.14900
H1352       H  0.56079211  0.10497256  0.31495414     0.14900
C1353       C  0.61261312  0.16889499  0.31104365     0.36600
C1354       C  0.62073358  0.04997020  0.36101343     0.36500
N1355       N  0.61007936  0.19237924  0.30024561    -0.43800
N1356       N  0.62301647  0.02633809  0.37180516    -0.43700
C1357       C  0.99469520  0.49119682  0.11951954    -0.00200
C1358       C  0.48830862  0.95921170  0.14514874    -0.12000
C1359       C  0.48782748  0.95669579  0.18728460     0.02100
C1360       C  0.99030664  0.48526806  0.20454583    -0.00200
C1361       C  0.99695206  0.51629471  0.18565166    -0.12000
C1362       C  0.99928210  0.51959685  0.14366008     0.02000
H1363       H  0.48672350  0.93796919  0.12723930     0.14900
H1364       H  0.00094646  0.53835334  0.20387717     0.14900
C1365       C  0.00582539  0.55229929  0.12658681     0.36600
C1366       C  0.48353079  0.92502448  0.20504986     0.36500
N1367       N  0.01106400  0.57856497  0.11309941    -0.43800
N1368       N  0.47993030  0.89957124  0.21922890    -0.43700
O1369       O  0.50526362  0.96870168  0.27431969    -0.73000
O1370       O  0.50834770  0.96973035  0.39552220    -0.73900
O1371       O  0.96096091  0.93111229  0.33602521    -0.62600
O1372       O  0.54889300  0.52077426  0.32033026    -0.71000
O1373       O  0.52154637  0.55120535  0.32043195    -0.70500
O1374       O  0.93137238  0.95926268  0.33453901    -0.61800
O1375       O  0.97893226  0.50042709  0.38890579    -0.74300
O1376       O  0.97618804  0.49899921  0.26849285    -0.73100
Cu1377     Cu  0.50778498  0.96815426  0.33488837     1.04600
Cu1378     Cu  0.97639394  0.50042136  0.32871268     1.04300
C1379       C  0.98689674  0.98565467  0.25126054     0.93200
C1380       C  0.49135130  0.49387129  0.40130261     0.92400
C1381       C  0.93186478  0.93074269  0.33700641     0.84500
C1382       C  0.54989230  0.55012722  0.32070044     0.90800
O1383       O  0.97457277  0.69362780  0.34071631    -0.73000
O1384       O  0.57251268  0.78807362  0.32988662    -0.73900
O1385       O  0.52878601  0.74553099  0.39224952    -0.62600
O1386       O  0.52544769  0.74150946  0.27110352    -0.71000
O1387       O  0.99149340  0.76834828  0.28117563    -0.70500
O1388       O  0.99153058  0.76734041  0.40190359    -0.61800
O1389       O  0.54419490  0.81751840  0.33040092    -0.74300
O1390       O  0.94602890  0.72285149  0.34105359    -0.73100
Cu1391     Cu  0.52813482  0.74236288  0.33174630     1.04600
Cu1392     Cu  0.99038970  0.76881009  0.34155744     1.04300
C1393       C  0.94579952  0.69392439  0.34093965     0.93200
C1394       C  0.57290129  0.81706138  0.33019625     0.92400
C1395       C  0.51445075  0.76035086  0.41092886     0.84500
C1396       C  0.51095354  0.75601135  0.25195205     0.90800
O1397       O  0.77786730  0.99253224  0.27697374    -0.70600
O1398       O  0.77582086  0.99402934  0.39807552    -0.73900
O1399       O  0.73159839  0.94881416  0.33661493    -0.62600
O1400       O  0.81561072  0.53271335  0.33886592    -0.71000
O1401       O  0.78699173  0.56185845  0.33709532    -0.70500
O1402       O  0.70332683  0.97825420  0.33390577    -0.61800
O1403       O  0.74070820  0.51806179  0.39738204    -0.74300
O1404       O  0.74226475  0.51548204  0.27666156    -0.73100
Cu1405     Cu  0.77809464  0.99248814  0.33757134     1.04600
Cu1406     Cu  0.74057178  0.51778917  0.33688907     1.04300
C1407       C  0.76354146  0.00661562  0.25671521     0.93200
C1408       C  0.76072998  0.00842812  0.41602677     0.92400
C1409       C  0.70294133  0.94925595  0.33446631     0.84500
C1410       C  0.81579367  0.56160885  0.33792985     0.90800
O1411       O  0.79883635  0.77303158  0.34023562    -0.73000
O1412       O  0.70844327  0.68260650  0.33321453    -0.73900
O1413       O  0.75570184  0.73073117  0.27642145    -0.62600
O1414       O  0.75177196  0.72543143  0.39734218    -0.71000
O1415       O  0.72172572  0.75318831  0.39743702    -0.70500
O1416       O  0.72770501  0.76063477  0.27722577    -0.61800
O1417       O  0.67934183  0.71130597  0.33247646    -0.74300
O1418       O  0.76959543  0.80152492  0.34188937    -0.73100
Cu1419     Cu  0.75464110  0.72686633  0.33682845     1.04600
Cu1420     Cu  0.72350756  0.75756208  0.33734746     1.04300
C1421       C  0.79859614  0.80173156  0.34184787     0.93200
C1422       C  0.67954050  0.68257703  0.33108348     0.92400
C1423       C  0.74294855  0.74715703  0.25783026     0.84500
C1424       C  0.73631541  0.73883504  0.41658589     0.90800
O1425       O  0.52076789  0.52515165  0.92977922    -0.73000
O1426       O  0.51239024  0.52118161  0.04965674    -0.73900
O1427       O  0.56059759  0.52089996  0.99435253    -0.62600
O1428       O  0.96900503  0.52302881  0.99350392    -0.71000
O1429       O  0.93509351  0.96119895  0.99443068    -0.70500
O1430       O  0.52990232  0.96674561  0.00388996    -0.61800
O1431       O  0.97799916  0.95917567  0.05676808    -0.74300
O1432       O  0.98243366  0.96264467  0.93616835    -0.73100
Cu1433     Cu  0.51764591  0.52500583  0.98987884     1.04600
Cu1434     Cu  0.97937418  0.95901245  0.99641206     1.04300
C1435       C  0.50269639  0.99761952  0.92242016     0.93200
C1436       C  0.99067927  0.98756529  0.07684548     0.92400
C1437       C  0.55817259  0.99610797  0.00583024     0.84500
C1438       C  0.93552329  0.99028216  0.99442408     0.90800
O1439       O  0.56046601  0.78265008  0.99766541    -0.73000
O1440       O  0.97127227  0.78631729  0.00803722    -0.73900
O1441       O  0.51624126  0.78389565  0.05781769    -0.62600
O1442       O  0.51517622  0.78156697  0.93692122    -0.71000
O1443       O  0.98658270  0.72843542  0.94786866    -0.70500
O1444       O  0.98954902  0.72935670  0.06839999    -0.61800
O1445       O  0.94265817  0.72862096  0.00934174    -0.74300
O1446       O  0.53137256  0.72485604  0.99859429    -0.73100
Cu1447     Cu  0.51661743  0.78487559  0.99731238     1.04600
Cu1448     Cu  0.98698686  0.72692379  0.00817069     1.04300
C1449       C  0.56022342  0.75373480  0.99850631     0.93200
C1450       C  0.94249817  0.75735047  0.00886711     0.92400
C1451       C  0.50245017  0.75531666  0.07750928     0.84500
C1452       C  0.50036382  0.75226610  0.91844528     0.90800
O1453       O  0.77474102  0.96172971  0.00052538    -0.73000
O1454       O  0.68677460  0.96550126  0.00896825    -0.73900
O1455       O  0.72575848  0.96092929  0.94383986    -0.62600
O1456       O  0.73596235  0.96719289  0.06536024    -0.71000
O1457       O  0.76412536  0.52048654  0.06370240    -0.70500
O1458       O  0.76208932  0.51737779  0.94402604    -0.61800
O1459       O  0.71701339  0.51751829  0.00391484    -0.74300
O1460       O  0.80869480  0.51958746  0.00329604    -0.73100
Cu1461     Cu  0.72973660  0.96176880  0.00481838     1.04600
Cu1462     Cu  0.76390193  0.52067868  0.00374945     1.04300
C1463       C  0.80399262  0.98992618  0.99771752     0.93200
C1464       C  0.68777880  0.99478091  0.00820950     0.92400
C1465       C  0.73954555  0.98917084  0.92339712     0.84500
C1466       C  0.75215994  0.99721038  0.08229702     0.90800
O1467       O  0.73726812  0.72810407  0.06221910    -0.73000
O1468       O  0.73971915  0.73262681  0.94244152    -0.73900
O1469       O  0.78413814  0.73113666  0.00285823    -0.62600
O1470       O  0.69336628  0.73002713  0.00174188    -0.71000
O1471       O  0.72176481  0.78781622  0.00396635    -0.70500
O1472       O  0.81256824  0.78879909  0.00638615    -0.61800
O1473       O  0.76877600  0.79039499  0.94453336    -0.74300
O1474       O  0.76524009  0.78567839  0.06612957    -0.73100
Cu1475     Cu  0.73770233  0.72854549  0.00223095     1.04600
Cu1476     Cu  0.76813386  0.79026384  0.00540763     1.04300
C1477       C  0.75077643  0.75587885  0.08341109     0.93200
C1478       C  0.75429843  0.76193429  0.92434123     0.92400
C1479       C  0.81282015  0.76014246  0.00476288     0.84500
C1480       C  0.69318683  0.75875212  0.00211415     0.90800
O1481       O  0.53609714  0.97217440  0.66933229    -0.73000
O1482       O  0.53395691  0.56120716  0.65450888    -0.73900
O1483       O  0.53556810  0.51595144  0.71367628    -0.62600
O1484       O  0.52851716  0.51415385  0.59288945    -0.71000
O1485       O  0.96893315  0.98711006  0.60411561    -0.70500
O1486       O  0.97098333  0.98520827  0.72469838    -0.61800
O1487       O  0.97665852  0.53589949  0.66370004    -0.74300
O1488       O  0.97065587  0.94131828  0.66252243    -0.73100
Cu1489     Cu  0.53413992  0.51612277  0.65311487     1.04600
Cu1490     Cu  0.96801182  0.98524319  0.66442515     1.04300
C1491       C  0.50708825  0.94350085  0.67051682     0.93200
C1492       C  0.50566979  0.56222022  0.65740273     0.92400
C1493       C  0.50974752  0.00503590  0.74817469     0.84500
C1494       C  0.50416822  0.99977199  0.58925654     0.90800
O1495       O  0.97575544  0.69489160  0.67494933    -0.73000
O1496       O  0.97596770  0.78516751  0.67297028    -0.73900
O1497       O  0.97569219  0.73941511  0.61408603    -0.62600
O1498       O  0.97594752  0.74092503  0.73461269    -0.71000
O1499       O  0.53682135  0.76650988  0.72579684    -0.70500
O1500       O  0.53895058  0.77046667  0.60522038    -0.61800
O1501       O  0.53851666  0.81378641  0.66754842    -0.74300
O1502       O  0.53704904  0.72255853  0.66330423    -0.73100
Cu1503     Cu  0.97384928  0.73906790  0.67426142     1.04600
Cu1504     Cu  0.53986076  0.76925070  0.66555747     1.04300
C1505       C  0.50780382  0.69411636  0.66078106     0.93200
C1506       C  0.50977933  0.81413806  0.66780204     0.92400
C1507       C  0.51034611  0.75780385  0.58528554     0.84500
C1508       C  0.50754670  0.75194547  0.74412051     0.90800
O1509       O  0.78160155  0.56409902  0.67580834    -0.73000
O1510       O  0.76893370  0.96672070  0.66914582    -0.73900
O1511       O  0.78132980  0.52121807  0.61195778    -0.62600
O1512       O  0.78055069  0.51542159  0.73226406    -0.71000
O1513       O  0.70871938  0.98102747  0.72796907    -0.70500
O1514       O  0.71632041  0.98911437  0.60682781    -0.61800
O1515       O  0.71102781  0.93921169  0.66479635    -0.74300
O1516       O  0.72381544  0.53574083  0.67613362    -0.73100
Cu1517     Cu  0.78294205  0.51945917  0.67213522     1.04600
Cu1518     Cu  0.71043882  0.98423128  0.66727240     1.04300
C1519       C  0.75288490  0.56446355  0.67704055     0.93200
C1520       C  0.73958486  0.93852056  0.66633829     0.92400
C1521       C  0.74641169  0.00338907  0.59019419     0.84500
C1522       C  0.73685747  0.99416713  0.74885157     0.90800
O1523       O  0.71840715  0.74015410  0.73142724    -0.73000
O1524       O  0.71477568  0.73339243  0.61112879    -0.73900
O1525       O  0.71825611  0.69258262  0.67462973    -0.62600
O1526       O  0.71474169  0.78088812  0.66824863    -0.71000
O1527       O  0.77259946  0.81117660  0.66453872    -0.70500
O1528       O  0.77601462  0.72245253  0.67401636    -0.61800
O1529       O  0.77269587  0.76233591  0.60907125    -0.74300
O1530       O  0.77621889  0.77132284  0.72973687    -0.73100
Cu1531     Cu  0.71458326  0.73574169  0.67141144     1.04600
Cu1532     Cu  0.77644317  0.76794436  0.66926510     1.04300
C1533       C  0.74776769  0.75655221  0.74975128     0.93200
C1534       C  0.74314061  0.74642014  0.59103385     0.92400
C1535       C  0.74747071  0.69324348  0.67560220     0.84500
C1536       C  0.74309644  0.81001002  0.66515481     0.90800
C1537       C  0.73898137  0.90494543  0.66490821    -0.00200
C1538       C  0.76373548  0.90227002  0.64111195    -0.12000
C1539       C  0.76499886  0.87133413  0.63983110     0.02100
C1540       C  0.74157136  0.84256568  0.66337260    -0.00200
C1541       C  0.71637037  0.84506428  0.68655745    -0.12000
C1542       C  0.71491694  0.87589756  0.68756604     0.02000
H1543       H  0.78190521  0.92433613  0.62308061     0.14900
H1544       H  0.69834102  0.82315088  0.70487034     0.14900
C1545       C  0.68982426  0.87764305  0.71382217     0.36600
C1546       C  0.78947856  0.86932720  0.61279202     0.36500
N1547       N  0.66980484  0.87905884  0.73498239    -0.43800
N1548       N  0.80887974  0.86763149  0.59085200    -0.43700
C1549       C  0.75270291  0.59804793  0.67885478    -0.00200
C1550       C  0.72036553  0.59675315  0.68234962    -0.12000
C1551       C  0.71789468  0.62702513  0.68201441     0.02100
C1552       C  0.74844017  0.66009297  0.67804989    -0.00200
C1553       C  0.78090862  0.66149853  0.67562762    -0.12000
C1554       C  0.78336811  0.63114843  0.67601678     0.02000
H1555       H  0.69651124  0.57178298  0.68501420     0.14900
H1556       H  0.80470594  0.68650155  0.67284084     0.14900
C1557       C  0.81780214  0.63520582  0.67278328     0.36600
C1558       C  0.68340563  0.62279481  0.68563669     0.36500
N1559       N  0.84549481  0.63870169  0.67018866    -0.43800
N1560       N  0.65568168  0.61917229  0.68850208    -0.43700
C1561       C  0.50740036  0.91021471  0.67108763    -0.00200
C1562       C  0.53609931  0.90947027  0.65410535    -0.12000
C1563       C  0.53763028  0.87871477  0.65287114     0.02100
C1564       C  0.50999796  0.84767639  0.66909259    -0.00200
C1565       C  0.97447354  0.84626445  0.65344434    -0.12000
C1566       C  0.97243518  0.87667474  0.65002014     0.02000
H1567       H  0.55723304  0.93292725  0.64090390     0.14900
H1568       H  0.95241677  0.82172092  0.64354693     0.14900
C1569       C  0.94124033  0.87390465  0.63222179     0.36600
C1570       C  0.56719624  0.87966523  0.63317178     0.36500
N1571       N  0.91625250  0.87155291  0.61777574    -0.43800
N1572       N  0.59089640  0.88052831  0.61730105    -0.43700
C1573       C  0.50691831  0.59626754  0.65827317    -0.00200
C1574       C  0.97502639  0.59751984  0.67388594    -0.12000
C1575       C  0.97361083  0.62821408  0.67774587     0.02100
C1576       C  0.50717470  0.66033796  0.65859802    -0.00200
C1577       C  0.53484208  0.65782564  0.67609272    -0.12000
C1578       C  0.53494213  0.62626641  0.67617506     0.02000
H1579       H  0.95105554  0.57277940  0.67744328     0.14900
H1580       H  0.55620430  0.68046420  0.69061578     0.14900
C1581       C  0.56335720  0.62517712  0.69650429     0.36600
C1582       C  0.94002269  0.62480633  0.68643955     0.36500
N1583       N  0.58610351  0.62438764  0.71295250    -0.43800
N1584       N  0.91300935  0.62183415  0.69336713    -0.43700
C1585       C  0.75320985  0.76210902  0.87969001    -0.00200
C1586       C  0.72481429  0.73402855  0.86021375    -0.12000
C1587       C  0.72235706  0.73177775  0.81823152     0.02100
C1588       C  0.74886456  0.75819406  0.79445018    -0.00200
C1589       C  0.77735567  0.78634744  0.81388872    -0.12000
C1590       C  0.77970758  0.78860972  0.85607626     0.02000
H1591       H  0.70420347  0.71340185  0.87801996     0.14900
H1592       H  0.79803180  0.80679561  0.79598899     0.14900
C1593       C  0.81021539  0.81756221  0.87414642     0.36600
C1594       C  0.69302108  0.70122637  0.80068204     0.36500
N1595       N  0.83473608  0.84076688  0.88852479    -0.43800
N1596       N  0.66952368  0.67668826  0.78675315    -0.43700
C1597       C  0.73685507  0.98899263  0.87852639    -0.00200
C1598       C  0.77305826  0.52109178  0.86155333    -0.12000
C1599       C  0.77433457  0.52473434  0.81970700     0.02100
C1600       C  0.73550005  0.99288865  0.79330699    -0.00200
C1601       C  0.71385020  0.96130856  0.81308543    -0.12000
C1602       C  0.71442518  0.95901087  0.85534931     0.02000
H1603       H  0.79060552  0.54347994  0.87977697     0.14900
H1604       H  0.69709334  0.93820513  0.79542167     0.14900
C1605       C  0.69165510  0.92567007  0.87371194     0.36600
C1606       C  0.79840676  0.55839779  0.80282406     0.36500
N1607       N  0.67334136  0.89886798  0.88824234    -0.43800
N1608       N  0.81767780  0.58536845  0.78932496    -0.43700
C1609       C  0.90897096  0.75743217  0.00855028    -0.00200
C1610       C  0.90926927  0.78803659  0.99669062    -0.12000
C1611       C  0.87851523  0.78967178  0.99497766     0.02100
C1612       C  0.84634312  0.76016583  0.00561130    -0.00200
C1613       C  0.84601573  0.72958636  0.01752610    -0.12000
C1614       C  0.87674946  0.72791262  0.01915909     0.02000
H1615       H  0.93364703  0.81082233  0.98801664     0.14900
H1616       H  0.82159047  0.70681242  0.02612519     0.14900
C1617       C  0.87413111  0.69570146  0.03269549     0.36600
C1618       C  0.88094764  0.82168088  0.98092542     0.36500
N1619       N  0.87178351  0.66979037  0.04355143    -0.43800
N1620       N  0.88312575  0.84740764  0.96962464    -0.43700
C1621       C  0.65947187  0.75800877  0.00065358    -0.00200
C1622       C  0.63010612  0.72934910  0.01758271    -0.12000
C1623       C  0.59747397  0.72719313  0.01715847     0.02100
C1624       C  0.59380203  0.75412545  0.99926381    -0.00200
C1625       C  0.62315548  0.78270347  0.98212846    -0.12000
C1626       C  0.65576427  0.78481147  0.98247246     0.02000
H1627       H  0.63274469  0.70876395  0.03182161     0.14900
H1628       H  0.62054958  0.80329468  0.96784592     0.14900
C1629       C  0.68438465  0.81398327  0.96236136     0.36600
C1630       C  0.56874062  0.69771240  0.03670184     0.36500
N1631       N  0.70713212  0.83732725  0.94601079    -0.43800
N1632       N  0.54579167  0.67407632  0.05241977    -0.43700
C1633       C  0.50145485  0.75149372  0.87378526    -0.00200
C1634       C  0.52922648  0.77965517  0.85389696    -0.12000
C1635       C  0.53213166  0.78012537  0.81189358     0.02100
C1636       C  0.50659218  0.75207176  0.78871525    -0.00200
C1637       C  0.97527545  0.73110356  0.81898844    -0.12000
C1638       C  0.97343871  0.73060355  0.86110064     0.02000
H1639       H  0.54902922  0.80139001  0.87125969     0.14900
H1640       H  0.95375079  0.71071344  0.80191495     0.14900
C1641       C  0.94220894  0.70346397  0.87989780     0.36600
C1642       C  0.56091211  0.81037131  0.79350677     0.36500
N1643       N  0.91713688  0.68173189  0.89488023    -0.43800
N1644       N  0.58399288  0.83463898  0.77887403    -0.43700
C1645       C  0.90216657  0.99081761  0.99391400    -0.00200
C1646       C  0.87056287  0.95907177  0.99038905    -0.12000
C1647       C  0.83830511  0.95784858  0.99110504     0.02100
C1648       C  0.83712535  0.98906502  0.99546851    -0.00200
C1649       C  0.86953970  0.51712397  0.97877231    -0.12000
C1650       C  0.90140757  0.51793166  0.97441754     0.02000
H1651       H  0.87090000  0.93487274  0.98718422     0.14900
H1652       H  0.86543874  0.53629075  0.96311719     0.14900
C1653       C  0.92750289  0.54399664  0.94837046     0.36600
C1654       C  0.80719777  0.92407837  0.98707062     0.36500
N1655       N  0.94833076  0.56478009  0.92734778    -0.43800
N1656       N  0.78244248  0.89689518  0.98385082    -0.43700
C1657       C  0.65496877  0.99577610  0.01002067    -0.00200
C1658       C  0.65233367  0.51457830  0.02133887    -0.12000
C1659       C  0.62140799  0.51593846  0.02002909     0.02100
C1660       C  0.59189955  0.99703044  0.00743018    -0.00200
C1661       C  0.59402495  0.97088919  0.02888689    -0.12000
C1662       C  0.62524013  0.97016355  0.03060964     0.02000
H1663       H  0.67463471  0.53448630  0.03792398     0.14900
H1664       H  0.57127868  0.95113356  0.04472389     0.14900
C1665       C  0.62621130  0.94353326  0.05477545     0.36600
C1666       C  0.62021195  0.54336282  0.04227567     0.36500
N1667       N  0.62697575  0.92226813  0.07428322    -0.43800
N1668       N  0.61923862  0.56526557  0.06023487    -0.43700
C1669       C  0.50473571  0.99913951  0.87784541    -0.00200
C1670       C  0.49495952  0.46795115  0.84148470    -0.12000
C1671       C  0.49493453  0.46815892  0.79926548     0.02100
C1672       C  0.50958249  0.00389100  0.79280013    -0.00200
C1673       C  0.97170957  0.97086815  0.80769432    -0.12000
C1674       C  0.97039002  0.96804214  0.84973897     0.02000
H1675       H  0.48372292  0.44313404  0.85695425     0.14900
H1676       H  0.95003370  0.95134353  0.78997949     0.14900
C1677       C  0.93934583  0.93983724  0.86762566     0.36600
C1678       C  0.48071686  0.43541818  0.77782940     0.36500
N1679       N  0.91442712  0.91727531  0.88189740    -0.43800
N1680       N  0.46952382  0.40925591  0.76056837    -0.43700
C1681       C  0.73649319  0.73889075  0.46135254    -0.00200
C1682       C  0.76381638  0.73763826  0.48174065    -0.12000
C1683       C  0.76661164  0.74004150  0.52384743     0.02100
C1684       C  0.74142943  0.74336193  0.54653220    -0.00200
C1685       C  0.71361157  0.74364222  0.52629907    -0.12000
C1686       C  0.71101283  0.74166711  0.48421986     0.02000
H1687       H  0.78354087  0.73546580  0.46471060     0.14900
H1688       H  0.69403019  0.74599874  0.54342235     0.14900
C1689       C  0.68157662  0.74205778  0.46564891     0.36600
C1690       C  0.79506685  0.73811771  0.54289058     0.36500
N1691       N  0.65798323  0.74244471  0.45090524    -0.43800
N1692       N  0.81786445  0.73653818  0.55808780    -0.43700
C1693       C  0.74560221  0.75021395  0.21346599    -0.00200
C1694       C  0.74072338  0.72136321  0.19095505    -0.12000
C1695       C  0.74224539  0.72248690  0.14884006     0.02100
C1696       C  0.74935973  0.75339795  0.12819891    -0.00200
C1697       C  0.75496110  0.78254676  0.15100428    -0.12000
C1698       C  0.75298180  0.78116198  0.19318097     0.02000
H1699       H  0.73514129  0.69753906  0.20637347     0.14900
H1700       H  0.76062695  0.80650035  0.13588667     0.14900
C1701       C  0.75987089  0.81226069  0.21487055     0.36600
C1702       C  0.73673288  0.69144702  0.12807975     0.36500
N1703       N  0.76548997  0.83727220  0.23210273    -0.43800
N1704       N  0.73216477  0.66645624  0.11161353    -0.43700
C1705       C  0.75798510  0.00752510  0.46075906    -0.00200
C1706       C  0.73088395  0.01084901  0.47843798    -0.12000
C1707       C  0.72642632  0.00944886  0.52032473     0.02100
C1708       C  0.74965398  0.00502406  0.54566536    -0.00200
C1709       C  0.77993707  0.50592392  0.52845929    -0.12000
C1710       C  0.78122538  0.50442750  0.48643862     0.02000
H1711       H  0.71275965  0.01423316  0.45943736     0.14900
H1712       H  0.79965937  0.50423598  0.54634566     0.14900
C1713       C  0.80970980  0.50178265  0.46897286     0.36600
C1714       C  0.69850227  0.01378442  0.53639957     0.36500
N1715       N  0.83256221  0.49960007  0.45517755    -0.43800
N1716       N  0.67612842  0.01731462  0.54918539    -0.43700
C1717       C  0.75540725  0.00017266  0.12689511    -0.00200
C1718       C  0.75543866  0.97315568  0.14898611    -0.12000
C1719       C  0.75875303  0.97492743  0.19109051     0.02100
C1720       C  0.76186790  0.00417504  0.21207119    -0.00200
C1721       C  0.75766471  0.52550266  0.19216050    -0.12000
C1722       C  0.75608978  0.52455908  0.15002939     0.02000
H1723       H  0.75298118  0.95053802  0.13329594     0.14900
H1724       H  0.76164096  0.54870928  0.20788405     0.14900
C1725       C  0.75888719  0.55465792  0.12962040     0.36600
C1726       C  0.75733338  0.94562955  0.21193030     0.36500
N1727       N  0.76114088  0.57884355  0.11345325    -0.43800
N1728       N  0.75612877  0.92210215  0.22858207    -0.43700
C1729       C  0.51458026  0.76124709  0.45544008    -0.00200
C1730       C  0.48499306  0.75774002  0.47523784    -0.12000
C1731       C  0.48309326  0.75705571  0.51733966     0.02100
C1732       C  0.51133754  0.75985721  0.54060771    -0.00200
C1733       C  0.02956970  0.74811741  0.53052072    -0.12000
C1734       C  0.03056460  0.74764088  0.48839018     0.02000
H1735       H  0.46298241  0.75504460  0.45769891     0.14900
H1736       H  0.04822644  0.74420677  0.54781247     0.14900
C1737       C  0.05728539  0.74264162  0.46988938     0.36600
C1738       C  0.45217162  0.75435865  0.53550152     0.36500
N1739       N  0.07871370  0.73856174  0.45524834    -0.43800
N1740       N  0.42738483  0.75229451  0.54989208    -0.43700
C1741       C  0.91218469  0.66040946  0.34063829    -0.00200
C1742       C  0.91245721  0.62989654  0.32969470    -0.12000
C1743       C  0.88167544  0.59755545  0.32844130     0.02100
C1744       C  0.84940215  0.59512988  0.33836468    -0.00200
C1745       C  0.84913175  0.62562502  0.34940802    -0.12000
C1746       C  0.87994013  0.65795641  0.35081061     0.02000
H1747       H  0.93686109  0.63125174  0.32156003     0.14900
H1748       H  0.82472178  0.62423200  0.35759764     0.14900
C1749       C  0.87742602  0.68774131  0.36388809     0.36600
C1750       C  0.88427127  0.56770227  0.31587896     0.36500
N1751       N  0.87526621  0.71150419  0.37442880    -0.43800
N1752       N  0.88654485  0.54389405  0.30581730    -0.43700
C1753       C  0.66932402  0.91579277  0.33269398    -0.00200
C1754       C  0.66951639  0.88486947  0.34152556    -0.12000
C1755       C  0.63881797  0.85249126  0.34055715     0.02100
C1756       C  0.60663530  0.85044210  0.33059869    -0.00200
C1757       C  0.60647705  0.88132386  0.32141033    -0.12000
C1758       C  0.63723469  0.91369836  0.32214844     0.02000
H1759       H  0.69381914  0.88587466  0.34965443     0.14900
H1760       H  0.58215442  0.88026030  0.31324954     0.14900
C1761       C  0.63477380  0.94393320  0.31102534     0.36600
C1762       C  0.64150931  0.82220893  0.35077502     0.36500
N1763       N  0.63262597  0.96803450  0.30200883    -0.43800
N1764       N  0.64398097  0.79811870  0.35888889    -0.43700
C1765       C  0.50451133  0.75585495  0.12207517    -0.00200
C1766       C  0.01154690  0.73387225  0.15100236    -0.12000
C1767       C  0.01271206  0.73230551  0.19306005     0.02100
C1768       C  0.50947553  0.75538978  0.20720442    -0.00200
C1769       C  0.50585410  0.78147608  0.18737117    -0.12000
C1770       C  0.50346020  0.78198709  0.14534651     0.02000
H1771       H  0.01609281  0.71609283  0.13295519     0.14900
H1772       H  0.50485631  0.80169613  0.20477140     0.14900
C1773       C  0.49851224  0.80884222  0.12715562     0.36600
C1774       C  0.02003782  0.70670835  0.21039336     0.36500
N1775       N  0.49444943  0.83032003  0.11265093    -0.43800
N1776       N  0.02612766  0.68628630  0.22408270    -0.43700
C1777       C  0.49689048  0.98696199  0.46004864    -0.00200
C1778       C  0.96928279  0.99901281  0.47520954    -0.12000
C1779       C  0.96901605  0.00026132  0.51734735     0.02100
C1780       C  0.50182570  0.99636054  0.54486025    -0.00200
C1781       C  0.52026492  0.49389269  0.50978720    -0.12000
C1782       C  0.51893681  0.49147021  0.46773786     0.02000
H1783       H  0.94765783  0.99798558  0.45841767     0.14900
H1784       H  0.53993660  0.49083509  0.52603178     0.14900
C1785       C  0.54445345  0.48526018  0.44809806     0.36600
C1786       C  0.94026040  0.00132453  0.53650938     0.36500
N1787       N  0.56481776  0.48000333  0.43265408    -0.43800
N1788       N  0.91717520  0.00218836  0.55172047    -0.43700
C1789       C  0.83224784  0.83526445  0.34289116    -0.00200
C1790       C  0.86323909  0.83474597  0.35121031    -0.12000
C1791       C  0.89590720  0.86529340  0.35039687     0.02100
C1792       C  0.89817128  0.89741745  0.34039542    -0.00200
C1793       C  0.86708986  0.89799619  0.33316632    -0.12000
C1794       C  0.83447485  0.86764198  0.33452224     0.02000
H1795       H  0.86204624  0.81030685  0.35850568     0.14900
H1796       H  0.86811918  0.92234944  0.32582614     0.14900
C1797       C  0.80410337  0.87093505  0.32634798     0.36600
C1798       C  0.92627588  0.86264880  0.36081463     0.36500
N1799       N  0.77992149  0.87386514  0.31997314    -0.43800
N1800       N  0.95045904  0.86033774  0.36939283    -0.43700
C1801       C  0.64625831  0.64888421  0.32723543    -0.00200
C1802       C  0.64545568  0.61822512  0.33995759    -0.12000
C1803       C  0.61475000  0.58577758  0.33767942     0.02100
C1804       C  0.58379163  0.58338359  0.32201395    -0.00200
C1805       C  0.58472099  0.61398445  0.30880303    -0.12000
C1806       C  0.61538769  0.64642646  0.31114544     0.02000
H1807       H  0.66881999  0.61962277  0.35257598     0.14900
H1808       H  0.56130892  0.61261980  0.29637792     0.14900
C1809       C  0.61433956  0.67640344  0.29578534     0.36600
C1810       C  0.61571627  0.55584149  0.35326980     0.36500
N1811       N  0.61334597  0.70031538  0.28339523    -0.43800
N1812       N  0.61671608  0.53199530  0.36585315    -0.43700
C1813       C  0.98798072  0.98631267  0.12125784    -0.00200
C1814       C  0.48593645  0.46110043  0.13328419    -0.12000
C1815       C  0.48374501  0.45963923  0.17544550     0.02100
C1816       C  0.98588512  0.98411362  0.20650437    -0.00200
C1817       C  0.98073430  0.00866828  0.18528310    -0.12000
C1818       C  0.98176329  0.00998294  0.14314916     0.02000
H1819       H  0.48350557  0.43882571  0.11681878     0.14900
H1820       H  0.97642761  0.02738780  0.20163553     0.14900
C1821       C  0.97519471  0.03513122  0.12315381     0.36600
C1822       C  0.47713394  0.42784354  0.19513306     0.36500
N1823       N  0.96977576  0.05515981  0.10711176    -0.43800
N1824       N  0.47179517  0.40233549  0.21085470    -0.43700
loop_ 
_geom_bond_atom_site_label_1 
_geom_bond_atom_site_label_2 
_geom_bond_distance 
_geom_bond_site_symmetry_2 
_ccdc_geom_bond_type 
O1           Cu9   2.012       .  S
O1          C923   1.278   1_455  A
O2           Cu9   2.015       .  S
O2          C468   1.279   1_455  A
O3         Cu921   2.007       .  S
O3           C13   1.278       .  A
O4         Cu465   2.010   1_545  S
O4           C14   1.278       .  A
O5         Cu922   1.998   1_455  S
O5           C14   1.277       .  A
O6         Cu466   1.997       .  S
O6           C13   1.276       .  A
O7          Cu10   2.003       .  S
O7          C924   1.278       .  A
O8          Cu10   2.003       .  S
O8          C467   1.277       .  A
Cu9         O915   1.996   1_455  S
Cu9         O460   1.998       .  S
Cu9       Cu1378   2.369   1_455  S
Cu10        O917   1.994   1_565  S
Cu10        O462   1.995       .  S
Cu10      Cu1377   2.367       .  S
C11         O913   1.276       .  A
C11         O464   1.280       .  A
C11         C448   1.482       .  S
C12         O458   1.277   1_655  A
C12         O919   1.278   1_565  A
C12         C865   1.481       .  S
C13         C424   1.480       .  S
C14         C436   1.490       .  S
O15        Cu935   2.009       .  S
O15          C25   1.279       .  A
O16         Cu23   1.999       .  S
O16          C26   1.277       .  A
O17         Cu23   2.007       .  S
O17          C27   1.278       .  A
O18         Cu23   2.007       .  S
O18          C28   1.278       .  A
O19         Cu24   2.001       .  S
O19         C940   1.277       .  A
O20         Cu24   2.001       .  S
O20         C939   1.278       .  A
O21        Cu936   2.002   1_455  S
O21          C26   1.277       .  A
O22         Cu24   1.995       .  S
O22          C25   1.276       .  A
Cu23        O927   2.000   1_455  S
Cu23       Cu936   2.370   1_455  S
Cu24        O933   1.991       .  S
Cu24       Cu935   2.368       .  S
C25         C373   1.486       .  S
C26         C388   1.476       .  S
C27         O932   1.277   1_455  A
C27         C361   1.482       .  S
C28         O931   1.278   1_455  A
C28         C400   1.485       .  S
O29         Cu37   1.999       .  S
O29          C39   1.276       .  A
O30         Cu37   1.998       .  S
O30          C40   1.277       .  A
O31         Cu37   1.997       .  S
O31          C41   1.277       .  A
O32        Cu493   2.000   1_545  S
O32          C42   1.276       .  A
O33         Cu38   2.006       .  S
O33          C42   1.279       .  A
O34        Cu494   2.001       .  S
O34          C41   1.277       .  A
O35         Cu38   2.002       .  S
O35         C496   1.277       .  A
O36         Cu38   2.005       .  S
O36         C495   1.278   1_545  A
Cu37        O488   2.002       .  S
Cu37       Cu494   2.370       .  S
Cu38        O490   1.998   1_545  S
Cu38       Cu493   2.371   1_545  S
C39         O492   1.279       .  A
C39         C352   1.484       .  S
C40         O491   1.278       .  A
C40         C337   1.488       .  S
C41         C385   1.475       .  S
C42         C376   1.485       .  S
O43         Cu51   1.990       .  S
O43          C53   1.276       .  A
O44         Cu51   1.997       .  S
O44          C54   1.277       .  A
O45         Cu51   2.005       .  S
O45          C55   1.279       .  A
O46         Cu51   2.007       .  S
O46          C56   1.278       .  A
O47         Cu52   2.013       .  S
O47          C56   1.278       .  A
O48         Cu52   2.011       .  S
O48          C55   1.277       .  A
O49         Cu52   2.015       .  S
O49          C54   1.279       .  A
O50         Cu52   2.009       .  S
O50          C53   1.278       .  A
Cu51        Cu52   2.367       .  S
C53         C421   1.478       .  S
C54         C433   1.489       .  S
C55         C325   1.493       .  S
C56         C313   1.489       .  S
O57         Cu65   2.008       .  S
O57         C523   1.278   1_445  A
O58         Cu65   2.005   1_554  S
O58        C1436   1.278   1_445  A
O59         Cu65   1.989   1_554  S
O59         C525   1.275   1_545  A
O60        Cu977   1.996   1_556  S
O60         C526   1.276   1_545  A
O61         Cu66   2.004       .  S
O61          C70   1.279       .  A
O62        Cu978   2.004   1_455  S
O62          C69   1.278       .  A
O63         Cu66   2.019   1_554  S
O63          C68   1.280       .  A
O64         Cu66   2.018       .  S
O64         C979   1.280       .  A
Cu65        O972   1.985   1_455  S
Cu65      Cu1434   2.368   1_445  S
Cu66        O974   2.006       .  S
Cu66      Cu1433   2.366       .  S
C67         O513   1.279       .  A
C67         O976   1.277   1_455  A
C67         C301   1.491       .  S
C68        O1426   1.276       .  A
C68         C445   1.487       .  S
C69         O515   1.276       .  A
C69         C292   1.481   1_556  S
C70         O516   1.276       .  A
C70         C277   1.489       .  S
O71         Cu79   1.999       .  S
O71          C81   1.278       .  A
O72        Cu991   1.994   1_554  S
O72          C82   1.276       .  A
O73         Cu79   2.005   1_554  S
O73          C83   1.277       .  A
O74         Cu79   2.002       .  S
O74          C84   1.278   1_455  A
O75         Cu80   2.001   1_556  S
O75         C996   1.277       .  A
O76         Cu80   1.999       .  S
O76         C995   1.277       .  A
O77         Cu80   2.002       .  S
O77          C82   1.278       .  A
O78        Cu992   1.995   1_455  S
O78          C81   1.276       .  A
Cu79        O984   1.997   1_456  S
Cu79       Cu992   2.368   1_455  S
Cu80        O990   2.001   1_554  S
Cu80       Cu991   2.369   1_554  S
C81         C256   1.484       .  S
C82         C241   1.479       .  S
C83         O988   1.278   1_455  A
C83         C397   1.482       .  S
C84         O987   1.277       .  A
C84         C265   1.485       .  S
O85         Cu93   1.989   1_556  S
O85          C95   1.275       .  A
O86         Cu93   1.990       .  S
O86          C96   1.275       .  A
O87         Cu93   2.013   1_556  S
O87          C97   1.278       .  A
O88         Cu93   2.015       .  S
O88          C98   1.279       .  A
O89         Cu94   1.988       .  S
O89         C554   1.275   1_545  A
O90         Cu94   1.989   1_556  S
O90         C553   1.276   1_545  A
O91         Cu94   2.001       .  S
O91         C552   1.279   1_545  A
O92         Cu94   2.004   1_556  S
O92         C551   1.279   1_545  A
Cu93       Cu550   2.368   1_554  S
Cu94       Cu549   2.367   1_545  S
C95         O548   1.280       .  A
C95         C280   1.491       .  S
C96         O547   1.279       .  A
C96         C289   1.480       .  S
C97         O546   1.277       .  A
C97         C229   1.486       .  S
C98         O545   1.276       .  A
C98         C349   1.481       .  S
O99        Cu107   1.996   1_554  S
O99         C109   1.276       .  A
O100       Cu107   1.996       .  S
O100        C110   1.277       .  A
O101       Cu107   1.988       .  S
O101        C111   1.276   1_556  A
O102       Cu107   1.993       .  S
O102        C112   1.277       .  A
O103       Cu108   2.002       .  S
O103        C112   1.277       .  A
O104       Cu108   2.007       .  S
O104        C111   1.278   1_556  A
O105       Cu108   2.022       .  S
O105        C110   1.279       .  A
O106       Cu108   2.023   1_554  S
O106        C109   1.279       .  A
Cu107      Cu108   2.371       .  S
C109        C328   1.475       .  S
C110        C217   1.487       .  S
C111        C244   1.479       .  S
C112        C253   1.483       .  S
O113       Cu577   2.001       .  S
O113        C123   1.278       .  A
O114       Cu121   1.996       .  S
O114        C124   1.276   1_455  A
O115       Cu121   2.008       .  S
O115        C581   1.278   1_545  A
O116       Cu121   2.007       .  S
O116        C582   1.278   1_455  A
O117       Cu122   2.000       .  S
O117       C1038   1.276       .  A
O118       Cu122   2.002       .  S
O118       C1037   1.276       .  A
O119       Cu578   2.009   1_545  S
O119       C1036   1.279       .  A
O120       Cu122   2.008       .  S
O120       C1035   1.278       .  A
Cu121       O569   1.994   1_545  S
Cu121     Cu1490   2.368   1_445  S
Cu122       O575   2.013       .  S
Cu122     Cu1489   2.372       .  S
C123       O1032   1.276   1_455  A
C123        C193   1.485       .  S
C124       O1031   1.279       .  A
C124        C205   1.489       .  S
C125        O571   1.277       .  A
C125       O1030   1.276   1_455  A
C125        C304   1.468       .  S
C126        O572   1.279       .  A
C126       O1029   1.277   1_455  A
C126        C412   1.481       .  S
O127       Cu135   2.007       .  S
O127       C1049   1.278       .  A
O128       Cu135   2.005       .  S
O128       C1050   1.278       .  A
O129       Cu135   1.999       .  S
O129       C1051   1.277       .  A
O130       Cu135   2.002       .  S
O130       C1052   1.277       .  A
O131       Cu136   1.997       .  S
O131        C140   1.276   1_455  A
O132       Cu136   1.999       .  S
O132        C139   1.277       .  A
O133       Cu136   1.997       .  S
O133        C138   1.276       .  A
O134       Cu136   2.002       .  S
O134        C137   1.279   1_455  A
Cu135     Cu1048   2.371       .  S
Cu136     Cu1047   2.369   1_455  S
C137       O1039   1.276       .  A
C137        C208   1.490       .  S
C138       O1040   1.278   1_455  A
C138        C196   1.484       .  S
C139       O1041   1.278   1_455  A
C139        C364   1.482       .  S
C140       O1042   1.278       .  A
C140        C268   1.476       .  S
O141       Cu149   1.996       .  S
O141        C151   1.276       .  A
O142       Cu605   2.006       .  S
O142        C152   1.279       .  A
O143       Cu149   1.998       .  S
O143        C609   1.277   1_545  A
O144       Cu149   1.997       .  S
O144        C610   1.277   1_545  A
O145       Cu150   2.010       .  S
O145        C154   1.278       .  A
O146       Cu150   2.009       .  S
O146        C153   1.278       .  A
O147       Cu150   1.999       .  S
O147        C152   1.276       .  A
O148       Cu606   2.011   1_545  S
O148        C151   1.279       .  A
Cu149       O598   1.995   1_545  S
Cu149      Cu606   2.369   1_545  S
Cu150       O604   1.995       .  S
Cu150      Cu605   2.371       .  S
C151        C181   1.490       .  S
C152        C169   1.489       .  S
C153        O599   1.276       .  A
C153        C340   1.472       .  S
C154        O600   1.276       .  A
C154        C232   1.476       .  S
O155       Cu163   2.002       .  S
O155        C165   1.277       .  A
O156       Cu163   2.004       .  S
O156        C166   1.277       .  A
O157       Cu163   2.003       .  S
O157        C167   1.277       .  A
O158       Cu163   2.000       .  S
O158        C168   1.278       .  A
O159       Cu164   2.005       .  S
O159        C168   1.277       .  A
O160       Cu164   2.006       .  S
O160        C167   1.279       .  A
O161       Cu164   2.015       .  S
O161        C166   1.279       .  A
O162       Cu164   2.016       .  S
O162        C165   1.278       .  A
Cu163      Cu164   2.367       .  S
C165        C220   1.482       .  S
C166        C316   1.483       .  S
C167        C184   1.491       .  S
C168        C172   1.490       .  S
C169        C170   1.406       .  A
C169        C174   1.417       .  A
C170        C171   1.400       .  A
C170        H175   1.085       .  S
C171        C172   1.417       .  A
C171        C178   1.444       .  S
C172        C173   1.406       .  A
C173        C174   1.398       .  A
C173        H176   1.085       .  S
C174        C177   1.445       .  S
C177        N179   1.157       .  T
C178        N180   1.157       .  T
C181        C182   1.405       .  A
C181        C186   1.418       .  A
C182        C183   1.400       .  A
C182        H187   1.085       .  S
C183        C184   1.417       .  A
C183        C190   1.444       .  S
C184        C185   1.406       .  A
C185        C186   1.399       .  A
C185        H188   1.085       .  S
C186        C189   1.445       .  S
C189        N191   1.158       .  T
C190        N192   1.157       .  T
C193        C194   1.406       .  A
C193       C1110   1.416   1_455  A
C194        C195   1.398       .  A
C194        H199   1.085       .  S
C195        C196   1.415       .  A
C195        C202   1.445       .  S
C196       C1109   1.405   1_455  A
C197        C198   1.400       .  A
C197       C1108   1.406       .  A
C197        H200   1.085       .  S
C198       C1105   1.417       .  A
C198        C201   1.444       .  S
C201        N203   1.157       .  T
C202        N204   1.157       .  T
C205        C210   1.416   1_655  A
C205       C1118   1.406       .  A
C206        C207   1.400       .  A
C206       C1117   1.406       .  A
C206        H211   1.085       .  S
C207       C1120   1.414       .  A
C207        C214   1.445       .  S
C208        C209   1.405   1_655  A
C208       C1119   1.417       .  A
C209        C210   1.397       .  A
C209        H212   1.085       .  S
C210        C213   1.444       .  S
C213        N215   1.157       .  T
C214        N216   1.157       .  T
C217        C218   1.405       .  A
C217        C222   1.416       .  A
C218        C219   1.397       .  A
C218        H223   1.089       .  S
C219        C220   1.412       .  A
C219        C226   1.445       .  S
C220        C221   1.405       .  A
C221        C222   1.404       .  A
C221        H224   1.089       .  S
C222        C225   1.444       .  S
C225        N227   1.157       .  T
C226        N228   1.157       .  T
C229        C234   1.416       .  A
C229        C686   1.407       .  A
C230        C231   1.397       .  A
C230        C685   1.406   1_545  A
C230        H235   1.085       .  S
C231        C688   1.412   1_545  A
C231        C238   1.445       .  S
C232        C233   1.403       .  A
C232        C687   1.411       .  A
C233        C234   1.402       .  A
C233        H236   1.085       .  S
C234        C237   1.443       .  S
C237        N239   1.157       .  T
C238        N240   1.157       .  T
C241        C242   1.406   1_554  A
C241        C246   1.412       .  A
C242        C243   1.399       .  A
C242        H247   1.085       .  S
C243        C244   1.414   1_556  A
C243        C250   1.445       .  S
C244        C245   1.405       .  A
C245        C246   1.395       .  A
C245        H248   1.085       .  S
C246        C249   1.445       .  S
C249        N251   1.157       .  T
C250        N252   1.157       .  T
C253        C254   1.406       .  A
C253        C258   1.415       .  A
C254        C255   1.397   1_556  A
C254        H259   1.084   1_556  S
C255        C256   1.415   1_554  A
C255        C262   1.445       .  S
C256        C257   1.406       .  A
C257        C258   1.398       .  A
C257        H260   1.084       .  S
C258        C261   1.445       .  S
C261        N263   1.157       .  T
C262        N264   1.158       .  T
C265        C266   1.406   1_655  A
C265       C1182   1.417       .  A
C266        C267   1.398       .  A
C266        H271   1.085       .  S
C267        C268   1.411   1_455  A
C267        C274   1.445       .  S
C268       C1181   1.402       .  A
C269        C270   1.400       .  A
C269       C1180   1.403       .  A
C269        H272   1.085       .  S
C270       C1177   1.417       .  A
C270        C273   1.445       .  S
C273        N275   1.157       .  T
C274        N276   1.157       .  T
C277        C278   1.405       .  A
C277        C738   1.417       .  A
C278        C279   1.398       .  A
C278        H283   1.085       .  S
C279        C280   1.419       .  A
C279        C286   1.445       .  S
C280        C737   1.406       .  A
C281        C282   1.398       .  A
C281        C736   1.406   1_545  A
C281        H284   1.084       .  S
C282        C733   1.416   1_545  A
C282        C285   1.445       .  S
C285        N287   1.157       .  T
C286        N288   1.158   1_556  T
C289        C294   1.414   1_554  A
C289        C746   1.404       .  A
C290        C291   1.397       .  A
C290        C745   1.405   1_545  A
C290        H295   1.085       .  S
C291        C748   1.417   1_545  A
C291        C298   1.445   1_554  S
C292        C293   1.402   1_554  A
C292        C747   1.415       .  A
C293        C294   1.396       .  A
C293        H296   1.085       .  S
C294        C297   1.444       .  S
C297        N299   1.157       .  T
C298        N300   1.158       .  T
C301        C758   1.410       .  A
C301       C1218   1.420   1_455  A
C302        C303   1.401       .  A
C302        C757   1.404   1_445  A
C302        H307   1.085       .  S
C303        C760   1.415   1_545  A
C303        C310   1.444       .  S
C304        C759   1.406       .  A
C304       C1217   1.398   1_455  A
C305        C306   1.401       .  A
C305       C1216   1.398       .  A
C305        H308   1.085       .  S
C306       C1213   1.422       .  A
C306        C309   1.444       .  S
C309        N311   1.157       .  T
C310        N312   1.157       .  T
C313        C314   1.407       .  A
C313        C318   1.416       .  A
C314        C315   1.401       .  A
C314        H319   1.084       .  S
C315        C316   1.412       .  A
C315        C322   1.444       .  S
C316        C317   1.404       .  A
C317        C318   1.401       .  A
C317        H320   1.085       .  S
C318        C321   1.444       .  S
C321        N323   1.157       .  T
C322        N324   1.157       .  T
C325        C326   1.408       .  A
C325        C330   1.421       .  A
C326        C327   1.397       .  A
C326        H331   1.084       .  S
C327        C328   1.407       .  A
C327        C334   1.445       .  S
C328        C329   1.401       .  A
C329        C330   1.405       .  A
C329        H332   1.085       .  S
C330        C333   1.444       .  S
C333        N335   1.158       .  T
C334        N336   1.157       .  T
C337        C338   1.409       .  A
C337        C798   1.419       .  A
C338        C339   1.401       .  A
C338        H343   1.085       .  S
C339        C340   1.409       .  A
C339        C346   1.445       .  S
C340        C797   1.399       .  A
C341        C342   1.399       .  A
C341        C796   1.407       .  A
C341        H344   1.085       .  S
C342        C793   1.411       .  A
C342        C345   1.444       .  S
C345        N347   1.157       .  T
C346        N348   1.157       .  T
C349        C350   1.403       .  A
C349        C810   1.414       .  A
C350        C351   1.401       .  A
C350        H355   1.085       .  S
C351        C352   1.416       .  A
C351        C358   1.445       .  S
C352        C809   1.404       .  A
C353        C354   1.397       .  A
C353        C808   1.403   1_545  A
C353        H356   1.085       .  S
C354        C805   1.416   1_545  A
C354        C357   1.445       .  S
C357        N359   1.157       .  T
C358        N360   1.157       .  T
C361        C362   1.405   1_455  A
C361       C1278   1.413       .  A
C362        C363   1.399       .  A
C362        H367   1.085       .  S
C363        C364   1.414   1_655  A
C363        C370   1.445       .  S
C364       C1277   1.405       .  A
C365        C366   1.402       .  A
C365       C1276   1.401       .  A
C365        H368   1.085       .  S
C366       C1273   1.420       .  A
C366        C369   1.444       .  S
C369        N371   1.158       .  T
C370        N372   1.157       .  T
C373        C374   1.405       .  A
C373        C378   1.416       .  A
C374        C375   1.400       .  A
C374        H379   1.085       .  S
C375        C376   1.416       .  A
C375        C382   1.445       .  S
C376        C377   1.404       .  A
C377        C378   1.398       .  A
C377        H380   1.085       .  S
C378        C381   1.445       .  S
C381        N383   1.157       .  T
C382        N384   1.157       .  T
C385        C386   1.403       .  A
C385        C390   1.412       .  A
C386        C387   1.397       .  A
C386        H391   1.085       .  S
C387        C388   1.413       .  A
C387        C394   1.445       .  S
C388        C389   1.404       .  A
C389        C390   1.399       .  A
C389        H392   1.085       .  S
C390        C393   1.445       .  S
C393        N395   1.157       .  T
C394        N396   1.157       .  T
C397        C402   1.413       .  A
C397       C1310   1.404       .  A
C398        C399   1.400       .  A
C398       C1309   1.406       .  A
C398        H403   1.085       .  S
C399       C1312   1.413       .  A
C399        C406   1.445       .  S
C400        C401   1.405       .  A
C400       C1311   1.416       .  A
C401        C402   1.399       .  A
C401        H404   1.085       .  S
C402        C405   1.445   1_455  S
C405        N407   1.157       .  T
C406        N408   1.157       .  T
C409        C468   1.489       .  S
C409       C1322   1.407       .  A
C409        C870   1.417   1_655  A
C410        C411   1.401       .  A
C410       C1321   1.406       .  A
C410        H415   1.085       .  S
C411       C1324   1.413       .  A
C411        C418   1.444       .  S
C412       C1323   1.411   1_455  A
C412        C869   1.404       .  A
C413        C414   1.400       .  A
C413        C868   1.405   1_455  A
C413        H416   1.085       .  S
C414        C865   1.414   1_445  A
C414        C417   1.445       .  S
C417        N419   1.157       .  T
C418        N420   1.157       .  T
C421        C422   1.404       .  A
C421        C426   1.413       .  A
C422        C423   1.397       .  A
C422        H427   1.085       .  S
C423        C424   1.413       .  A
C423        C430   1.445       .  S
C424        C425   1.406       .  A
C425        C426   1.400       .  A
C425        H428   1.085       .  S
C426        C429   1.445       .  S
C429        N431   1.157       .  T
C430        N432   1.157       .  T
C433        C434   1.407       .  A
C433        C438   1.415       .  A
C434        C435   1.399       .  A
C434        H439   1.085       .  S
C435        C436   1.415       .  A
C435        C442   1.445       .  S
C436        C437   1.408       .  A
C437        C438   1.401       .  A
C437        H440   1.085       .  S
C438        C441   1.445       .  S
C441        N443   1.158       .  T
C442        N444   1.158       .  T
C445        C450   1.418       .  A
C445       C1814   1.405       .  A
C446        C447   1.400       .  A
C446       C1813   1.403       .  A
C446        H451   1.085       .  S
C447       C1816   1.417       .  A
C447        C454   1.445       .  S
C448        C449   1.402       .  A
C448       C1815   1.414       .  A
C449        C450   1.400       .  A
C449        H452   1.085       .  S
C450        C453   1.445       .  S
C453        N455   1.157       .  T
C454        N456   1.157       .  T
O457       Cu465   2.003       .  S
O457       C1379   1.277   1_455  A
O458       Cu465   2.001       .  S
O459      Cu1377   1.998       .  S
O459        C469   1.276       .  A
O460        C470   1.276       .  A
O461      Cu1378   1.999   1_455  S
O461        C470   1.278       .  A
O462        C469   1.277       .  A
O463       Cu466   2.017       .  S
O463       C1380   1.280       .  A
O464       Cu466   2.017       .  S
Cu465      O1371   2.011   1_455  S
Cu465      Cu922   2.367   1_465  S
Cu466      O1373   1.997       .  S
Cu466      Cu921   2.370       .  S
C467       O1369   1.278       .  A
C467        C904   1.482       .  S
C468       O1375   1.278       .  A
C469        C880   1.486       .  S
C470        C892   1.481       .  S
O471      Cu1391   2.000       .  S
O471        C481   1.277       .  A
O472       Cu479   1.996       .  S
O472        C482   1.277       .  A
O473       Cu479   1.999       .  S
O473        C483   1.276       .  A
O474       Cu479   2.000       .  S
O474        C484   1.276       .  A
O475       Cu480   1.997       .  S
O475       C1396   1.277       .  A
O476       Cu480   1.995       .  S
O476       C1395   1.276       .  A
O477      Cu1392   1.996   1_455  S
O477        C482   1.277       .  A
O478       Cu480   2.003       .  S
O478        C481   1.278       .  A
Cu479      O1383   2.000   1_455  S
Cu479     Cu1392   2.368   1_455  S
Cu480      O1389   2.004       .  S
Cu480     Cu1391   2.370       .  S
C481        C829   1.483       .  S
C482        C844   1.478       .  S
C483       O1388   1.278   1_455  A
C483        C817   1.484       .  S
C484       O1387   1.278   1_455  A
C484        C856   1.486       .  S
O485       Cu493   2.008       .  S
O485        C495   1.278       .  A
O486       Cu493   2.008       .  S
O486        C496   1.278   1_565  A
O487       Cu493   1.992       .  S
O487        C497   1.277       .  A
O488        C498   1.277       .  A
O489       Cu494   2.002       .  S
O489        C498   1.278       .  A
O490        C497   1.277       .  A
O491       Cu494   2.007       .  S
O492       Cu494   2.011       .  S
C495        C808   1.484       .  S
C496        C793   1.480       .  S
C497        C841   1.475       .  S
C498        C832   1.484       .  S
O499       Cu507   1.984       .  S
O499        C509   1.276       .  A
O500       Cu507   1.997       .  S
O500        C510   1.277       .  A
O501       Cu507   2.018       .  S
O501        C511   1.279       .  A
O502       Cu507   2.021       .  S
O502        C512   1.280       .  A
O503       Cu508   2.004       .  S
O503        C512   1.277       .  A
O504       Cu508   2.001       .  S
O504        C511   1.276       .  A
O505       Cu508   2.003       .  S
O505        C510   1.277       .  A
O506       Cu508   2.005       .  S
O506        C509   1.278       .  A
Cu507      Cu508   2.369       .  S
C509        C877   1.485       .  S
C510        C889   1.482       .  S
C511        C781   1.475       .  S
C512        C769   1.491       .  S
O513       Cu521   2.013       .  S
O514       Cu521   2.009   1_554  S
O514        C980   1.278   1_455  A
O515       Cu521   2.001       .  S
O516      Cu1433   2.001       .  S
O517       Cu522   2.001   1_556  S
O517        C526   1.278       .  A
O518      Cu1434   2.007   1_455  S
O518        C525   1.279   1_556  A
O519       Cu522   2.005       .  S
O519        C524   1.278       .  A
O520       Cu522   2.001   1_556  S
O520       C1435   1.277       .  A
Cu521      O1428   1.998   1_455  S
Cu521      Cu978   2.369   1_455  S
Cu522      O1430   1.997       .  S
Cu522      Cu977   2.371   1_565  S
C523       O1432   1.277       .  A
C523        C757   1.482       .  S
C524        O970   1.278   1_565  A
C524        C901   1.486       .  S
C525        C748   1.486       .  S
C526        C733   1.486       .  S
O527       Cu535   1.999       .  S
O527        C537   1.278       .  A
O528      Cu1447   1.992       .  S
O528        C538   1.276       .  A
O529       Cu535   2.005       .  S
O529        C539   1.277       .  A
O530       Cu535   2.006   1_556  S
O530        C540   1.278       .  A
O531       Cu536   2.002       .  S
O531       C1452   1.277       .  A
O532       Cu536   2.003   1_554  S
O532       C1451   1.277       .  A
O533       Cu536   2.005       .  S
O533        C538   1.278       .  A
O534      Cu1448   1.994   1_455  S
O534        C537   1.276       .  A
Cu535      O1440   1.998   1_455  S
Cu535     Cu1448   2.370   1_455  S
Cu536      O1446   1.999       .  S
Cu536     Cu1447   2.372       .  S
C537        C712   1.485       .  S
C538        C697   1.480       .  S
C539       O1444   1.277   1_455  A
C539        C853   1.475       .  S
C540       O1443   1.277   1_455  A
C540        C721   1.480       .  S
O541       Cu549   2.001   1_556  S
O541        C551   1.276       .  A
O542       Cu549   1.993       .  S
O542        C552   1.275       .  A
O543       Cu549   2.023   1_556  S
O543        C553   1.280       .  A
O544       Cu549   2.025       .  S
O544        C554   1.280       .  A
O545       Cu550   1.996   1_554  S
O546       Cu550   1.994       .  S
O547       Cu550   2.017   1_554  S
O548       Cu550   2.017       .  S
C551        C736   1.489       .  S
C552        C745   1.486       .  S
C553        C685   1.485       .  S
C554        C805   1.484       .  S
O555       Cu563   1.991   1_554  S
O555        C565   1.275       .  A
O556       Cu563   1.992       .  S
O556        C566   1.276       .  A
O557       Cu563   2.000       .  S
O557        C567   1.278   1_556  A
O558       Cu563   1.994   1_554  S
O558        C568   1.278       .  A
O559       Cu564   2.008       .  S
O559        C568   1.277       .  A
O560       Cu564   1.996       .  S
O560        C567   1.276       .  A
O561       Cu564   2.030   1_556  S
O561        C566   1.280       .  A
O562       Cu564   2.027       .  S
O562        C565   1.280       .  A
Cu563      Cu564   2.371   1_556  S
C565        C784   1.473       .  S
C566        C673   1.485       .  S
C567        C700   1.481       .  S
C568        C709   1.486       .  S
O569        C579   1.277   1_455  A
O570       Cu577   2.006       .  S
O570        C580   1.277       .  A
O571       Cu577   2.011       .  S
O572       Cu577   2.015       .  S
O573       Cu578   1.994       .  S
O573       C1494   1.275       .  A
O574       Cu578   1.987       .  S
O574       C1493   1.276   1_565  A
O575       C1492   1.279       .  A
O576       Cu578   2.009       .  S
O576       C1491   1.278       .  A
Cu577     Cu1034   2.370   1_455  S
Cu578     Cu1033   2.370   1_565  S
C579       O1488   1.278       .  A
C579        C649   1.483   1_655  S
C580       O1487   1.278   1_455  A
C580        C661   1.489       .  S
C581       O1486   1.278   1_455  A
C581        C760   1.485       .  S
C582       O1485   1.277   1_545  A
C582        C868   1.482       .  S
O583       Cu591   2.003       .  S
O583       C1505   1.277       .  A
O584       Cu591   2.002       .  S
O584       C1506   1.277       .  A
O585       Cu591   2.003       .  S
O585       C1507   1.277       .  A
O586       Cu591   2.004       .  S
O586       C1508   1.278       .  A
O587       Cu592   2.007       .  S
O587        C596   1.277       .  A
O588       Cu592   2.003       .  S
O588        C595   1.277       .  A
O589       Cu592   2.004       .  S
O589        C594   1.277       .  A
O590       Cu592   2.005       .  S
O590        C593   1.278       .  A
Cu591     Cu1504   2.370       .  S
Cu592     Cu1503   2.369   1_455  S
C593       O1495   1.277   1_455  A
C593        C664   1.489       .  S
C594       O1496   1.277   1_455  A
C594        C652   1.483       .  S
C595       O1497   1.276   1_455  A
C595        C820   1.475       .  S
C596       O1498   1.278   1_455  A
C596        C724   1.484       .  S
O597       Cu605   2.006       .  S
O597        C607   1.278       .  A
O598        C608   1.277       .  A
O599       Cu605   1.994       .  S
O600       Cu605   1.996       .  S
O601       Cu606   2.014       .  S
O601        C610   1.278       .  A
O602       Cu606   2.012       .  S
O602        C609   1.278       .  A
O603       Cu606   2.008       .  S
O603        C608   1.278       .  A
O604        C607   1.277       .  A
C607        C637   1.483       .  S
C608        C625   1.482       .  S
C609        C796   1.485   1_565  S
C610        C688   1.480       .  S
O611       Cu619   2.003       .  S
O611        C621   1.277       .  A
O612       Cu619   2.006       .  S
O612        C622   1.277       .  A
O613       Cu619   2.002       .  S
O613        C623   1.277       .  A
O614       Cu619   2.000       .  S
O614        C624   1.277       .  A
O615       Cu620   2.002       .  S
O615        C624   1.277       .  A
O616       Cu620   2.000       .  S
O616        C623   1.277       .  A
O617       Cu620   2.019       .  S
O617        C622   1.279       .  A
O618       Cu620   2.020       .  S
O618        C621   1.279       .  A
Cu619      Cu620   2.369       .  S
C621        C676   1.490       .  S
C622        C772   1.483       .  S
C623        C640   1.483       .  S
C624        C628   1.485       .  S
C625        C626   1.405       .  A
C625        C630   1.414       .  A
C626        C627   1.397       .  A
C626        H631   1.085       .  S
C627        C628   1.415       .  A
C627        C634   1.445       .  S
C628        C629   1.407       .  A
C629        C630   1.400       .  A
C629        H632   1.085       .  S
C630        C633   1.444       .  S
C633        N635   1.157       .  T
C634        N636   1.157       .  T
C637        C638   1.405       .  A
C637        C642   1.414       .  A
C638        C639   1.397       .  A
C638        H643   1.085       .  S
C639        C640   1.414       .  A
C639        C646   1.445       .  S
C640        C641   1.406       .  A
C641        C642   1.399       .  A
C641        H644   1.085       .  S
C642        C645   1.445       .  S
C645        N647   1.157       .  T
C646        N648   1.157       .  T
C649        C650   1.405       .  A
C649       C1566   1.414   1_455  A
C650        C651   1.398       .  A
C650        H655   1.085       .  S
C651        C652   1.414       .  A
C651        C658   1.444       .  S
C652       C1565   1.406   1_455  A
C653       C1564   1.405       .  A
C653        C654   1.400       .  A
C653        H656   1.085       .  S
C654       C1561   1.414       .  A
C654        C657   1.445       .  S
C657        N659   1.157       .  T
C658        N660   1.157       .  T
C661       C1574   1.406   1_455  A
C661        C666   1.417       .  A
C662       C1573   1.404       .  A
C662        C663   1.400       .  A
C662        H667   1.085       .  S
C663       C1576   1.415       .  A
C663        C670   1.445       .  S
C664       C1575   1.416   1_455  A
C664        C665   1.407       .  A
C665        C666   1.400       .  A
C665        H668   1.085       .  S
C666        C669   1.445       .  S
C669        N671   1.158       .  T
C670        N672   1.157       .  T
C673        C674   1.403       .  A
C673        C678   1.413       .  A
C674        C675   1.397       .  A
C674        H679   1.089       .  S
C675        C676   1.416       .  A
C675        C682   1.445       .  S
C676        C677   1.408       .  A
C677        C678   1.405       .  A
C677        H680   1.089       .  S
C678        C681   1.444       .  S
C681        N683   1.157       .  T
C682        N684   1.157       .  T
C685        C690   1.415       .  A
C686        C687   1.397       .  A
C686        H691   1.085       .  S
C687        C694   1.445       .  S
C688        C689   1.405       .  A
C689        C690   1.404       .  A
C689        H692   1.085       .  S
C690        C693   1.444       .  S
C693        N695   1.157       .  T
C694        N696   1.157       .  T
C697        C698   1.405   1_556  A
C697        C702   1.413       .  A
C698        C699   1.397       .  A
C698        H703   1.085       .  S
C699        C700   1.415       .  A
C699        C706   1.445       .  S
C700        C701   1.405   1_554  A
C701        C702   1.398       .  A
C701        H704   1.085       .  S
C702        C705   1.444       .  S
C705        N707   1.157       .  T
C706        N708   1.158       .  T
C709        C710   1.406   1_554  A
C709        C714   1.416       .  A
C710        C711   1.397       .  A
C710        H715   1.084       .  S
C711        C712   1.415   1_556  A
C711        C718   1.445       .  S
C712        C713   1.405       .  A
C713        C714   1.398       .  A
C713        H716   1.084       .  S
C714        C717   1.442       .  S
C717        N719   1.157       .  T
C718        N720   1.157       .  T
C721        C722   1.404       .  A
C721       C1638   1.413   1_455  A
C722        C723   1.400       .  A
C722        H727   1.085       .  S
C723        C724   1.415       .  A
C723        C730   1.445       .  S
C724       C1637   1.406   1_455  A
C725       C1636   1.404       .  A
C725        C726   1.400       .  A
C725        H728   1.085       .  S
C726       C1633   1.415       .  A
C726        C729   1.444       .  S
C729        N731   1.157       .  T
C730        N732   1.157       .  T
C733        C734   1.404       .  A
C734        C735   1.398       .  A
C734        H739   1.085   1_556  S
C735        C736   1.417       .  A
C735        C742   1.442   1_556  S
C737        C738   1.401       .  A
C737        H740   1.084       .  S
C738        C741   1.445       .  S
C741        N743   1.157       .  T
C742        N744   1.156       .  T
C745        C750   1.417       .  A
C746        C747   1.402       .  A
C746        H751   1.085       .  S
C747        C754   1.445       .  S
C748        C749   1.405       .  A
C749        C750   1.398       .  A
C749        H752   1.085       .  S
C750        C753   1.445       .  S
C753        N755   1.158       .  T
C754        N756   1.157       .  T
C757       C1674   1.414       .  A
C758        C759   1.401       .  A
C758        H763   1.084       .  S
C759        C766   1.445       .  S
C760       C1673   1.406   1_455  A
C761       C1672   1.404   1_565  A
C761        C762   1.395       .  A
C761        H764   1.085       .  S
C762       C1669   1.413       .  A
C762        C765   1.445       .  S
C765        N767   1.157       .  T
C766        N768   1.157       .  T
C769        C770   1.408       .  A
C769        C774   1.418       .  A
C770        C771   1.403       .  A
C770        H775   1.084       .  S
C771        C772   1.412       .  A
C771        C778   1.444       .  S
C772        C773   1.403       .  A
C773        C774   1.401       .  A
C773        H776   1.085       .  S
C774        C777   1.445       .  S
C777        N779   1.157       .  T
C778        N780   1.157       .  T
C781        C782   1.402       .  A
C781        C786   1.413       .  A
C782        C783   1.399       .  A
C782        H787   1.085       .  S
C783        C784   1.411       .  A
C783        C790   1.445       .  S
C784        C785   1.402       .  A
C785        C786   1.403       .  A
C785        H788   1.085       .  S
C786        C789   1.444       .  S
C789        N791   1.157       .  T
C790        N792   1.157       .  T
C793        C794   1.405       .  A
C794        C795   1.400       .  A
C794        H799   1.085       .  S
C795        C796   1.415       .  A
C795        C802   1.444   1_545  S
C797        C798   1.397       .  A
C797        H800   1.086       .  S
C798        C801   1.445       .  S
C801        N803   1.157       .  T
C802        N804   1.157       .  T
C805        C806   1.404       .  A
C806        C807   1.403       .  A
C806        H811   1.085       .  S
C807        C808   1.416       .  A
C807        C814   1.444       .  S
C809        C810   1.399       .  A
C809        H812   1.085       .  S
C810        C813   1.445       .  S
C813        N815   1.157       .  T
C814        N816   1.157       .  T
C817        C818   1.406   1_455  A
C817       C1734   1.417       .  A
C818        C819   1.398       .  A
C818        H823   1.085       .  S
C819        C820   1.411   1_655  A
C819        C826   1.445       .  S
C820       C1733   1.402       .  A
C821       C1732   1.407       .  A
C821        C822   1.399       .  A
C821        H824   1.084       .  S
C822       C1729   1.410       .  A
C822        C825   1.444       .  S
C825        N827   1.157       .  T
C826        N828   1.157       .  T
C829        C830   1.405       .  A
C829        C834   1.414       .  A
C830        C831   1.399       .  A
C830        H835   1.085       .  S
C831        C832   1.415       .  A
C831        C838   1.445       .  S
C832        C833   1.405       .  A
C833        C834   1.399       .  A
C833        H836   1.085       .  S
C834        C837   1.445       .  S
C837        N839   1.157       .  T
C838        N840   1.157       .  T
C841        C842   1.403       .  A
C841        C846   1.413       .  A
C842        C843   1.395       .  A
C842        H847   1.085       .  S
C843        C844   1.414       .  A
C843        C850   1.445       .  S
C844        C845   1.405       .  A
C845        C846   1.398       .  A
C845        H848   1.085       .  S
C846        C849   1.445       .  S
C849        N851   1.157       .  T
C850        N852   1.157       .  T
C853       C1766   1.402       .  A
C853        C858   1.410   1_455  A
C854       C1765   1.405       .  A
C854        C855   1.401       .  A
C854        H859   1.085       .  S
C855       C1768   1.415       .  A
C855        C862   1.445       .  S
C856       C1767   1.417       .  A
C856        C857   1.407       .  A
C857        C858   1.399   1_455  A
C857        H860   1.085   1_455  S
C858        C861   1.445       .  S
C861        N863   1.157       .  T
C862        N864   1.157       .  T
C865       C1778   1.404       .  A
C866       C1777   1.408       .  A
C866        C867   1.399   1_565  A
C866        H871   1.085   1_565  S
C867       C1780   1.410   1_545  A
C867        C874   1.445       .  S
C868       C1779   1.414       .  A
C869        C870   1.403       .  A
C869        H872   1.085       .  S
C870        C873   1.444       .  S
C873        N875   1.158       .  T
C874        N876   1.157       .  T
C877        C878   1.407       .  A
C877        C882   1.415       .  A
C878        C879   1.396       .  A
C878        H883   1.085       .  S
C879        C880   1.416       .  A
C879        C886   1.445       .  S
C880        C881   1.407       .  A
C881        C882   1.398       .  A
C881        H884   1.085       .  S
C882        C885   1.445       .  S
C885        N887   1.158       .  T
C886        N888   1.158       .  T
C889        C890   1.405       .  A
C889        C894   1.414       .  A
C890        C891   1.398       .  A
C890        H895   1.085       .  S
C891        C892   1.415       .  A
C891        C898   1.445       .  S
C892        C893   1.405       .  A
C893        C894   1.398       .  A
C893        H896   1.085       .  S
C894        C897   1.445       .  S
C897        N899   1.157       .  T
C898        N900   1.157       .  T
C901       C1358   1.407       .  A
C901        C906   1.415   1_565  A
C902       C1357   1.409       .  A
C902        C903   1.400       .  A
C902        H907   1.084       .  S
C903       C1360   1.409       .  A
C903        C910   1.445       .  S
C904       C1359   1.413       .  A
C904        C905   1.404   1_565  A
C905        C906   1.400       .  A
C905        H908   1.085       .  S
C906        C909   1.444       .  S
C909        N911   1.157       .  T
C910        N912   1.157       .  T
O913       Cu921   1.999       .  S
O914       Cu921   1.991       .  S
O914       C1380   1.275       .  A
O915        C925   1.276       .  A
O916      Cu1377   2.003   1_545  S
O916        C926   1.277       .  A
O917        C926   1.277       .  A
O918      Cu1378   2.004       .  S
O918        C925   1.278       .  A
O919       Cu922   2.005       .  S
O920       Cu922   2.008       .  S
O920       C1379   1.279   1_545  A
Cu921      O1372   2.014       .  S
Cu922      O1374   1.993   1_545  S
C923       O1376   1.276       .  A
C923       C1360   1.476       .  S
C924       O1370   1.278       .  A
C924       C1777   1.490       .  S
C925       C1336   1.485       .  S
C926       C1348   1.483       .  S
O927        C937   1.278       .  A
O928       Cu935   2.008       .  S
O928        C938   1.278       .  A
O929       Cu935   2.009       .  S
O929        C939   1.277       .  A
O930       Cu935   2.009       .  S
O930        C940   1.278       .  A
O931       Cu936   2.004       .  S
O932       Cu936   2.002       .  S
O933        C938   1.276       .  A
O934       Cu936   2.000       .  S
O934        C937   1.277       .  A
C937       C1285   1.486       .  S
C938       C1300   1.485       .  S
C939       C1273   1.490       .  S
C940       C1312   1.481       .  S
O941       Cu949   2.006       .  S
O941        C951   1.277       .  A
O942       Cu949   2.006       .  S
O942        C952   1.278       .  A
O943       Cu949   1.994       .  S
O943        C953   1.277       .  A
O944      Cu1405   2.003   1_545  S
O944        C954   1.277       .  A
O945       Cu950   2.000       .  S
O945        C954   1.278       .  A
O946      Cu1406   2.003       .  S
O946        C953   1.277       .  A
O947       Cu950   2.006       .  S
O947       C1408   1.278       .  A
O948       Cu950   2.005       .  S
O948       C1407   1.278       .  A
Cu949      O1400   1.999       .  S
Cu949     Cu1406   2.369       .  S
Cu950      O1402   1.998   1_545  S
Cu950     Cu1405   2.368   1_545  S
C951       O1404   1.278       .  A
C951       C1264   1.479       .  S
C952       O1403   1.278       .  A
C952       C1249   1.485       .  S
C953       C1297   1.483       .  S
C954       C1288   1.486       .  S
O955       Cu963   1.997       .  S
O955        C965   1.277       .  A
O956       Cu963   1.999       .  S
O956        C966   1.277       .  A
O957       Cu963   2.020       .  S
O957        C967   1.280       .  A
O958       Cu963   2.022       .  S
O958        C968   1.280       .  A
O959       Cu964   1.992       .  S
O959        C968   1.275       .  A
O960       Cu964   1.992       .  S
O960        C967   1.276       .  A
O961       Cu964   2.002       .  S
O961        C966   1.277       .  A
O962       Cu964   2.000       .  S
O962        C965   1.277       .  A
Cu963      Cu964   2.368       .  S
C965       C1333   1.484       .  S
C966       C1345   1.484       .  S
C967       C1237   1.483       .  S
C968       C1225   1.486       .  S
O969       Cu977   2.008   1_556  S
O969       C1435   1.278   1_545  A
O970       Cu977   2.009       .  S
O971       Cu977   1.991       .  S
O971       C1437   1.276   1_545  A
O972       C1438   1.274   1_545  A
O973       Cu978   2.003       .  S
O973        C982   1.277       .  A
O974        C981   1.278       .  A
O975       Cu978   1.999   1_554  S
O975        C980   1.277       .  A
O976       Cu978   2.004       .  S
C979       O1425   1.276       .  A
C979       C1213   1.493       .  S
C980       C1357   1.488       .  S
C981       O1427   1.277       .  A
C981       C1204   1.480       .  S
C982       O1428   1.276       .  A
C982       C1189   1.475       .  S
O983       Cu991   1.990       .  S
O983        C993   1.277       .  A
O984        C994   1.278       .  A
O985       Cu991   2.011   1_554  S
O985        C995   1.278       .  A
O986       Cu991   2.011       .  S
O986        C996   1.279       .  A
O987       Cu992   2.005       .  S
O988       Cu992   2.008   1_554  S
O989       Cu992   1.996   1_554  S
O989        C994   1.276       .  A
O990        C993   1.276       .  A
C993       C1168   1.485       .  S
C994       C1153   1.484       .  S
C995       C1309   1.482       .  S
C996       C1177   1.487       .  S
O997      Cu1005   1.997       .  S
O997       C1007   1.276       .  A
O998      Cu1005   2.000       .  S
O998       C1008   1.276       .  A
O999      Cu1005   2.024   1_556  S
O999       C1009   1.280       .  A
O1000     Cu1005   2.024       .  S
O1000      C1010   1.281       .  A
O1001     Cu1006   1.992       .  S
O1001      C1466   1.275   1_545  A
O1002     Cu1006   1.988   1_556  S
O1002      C1465   1.277   1_545  A
O1003     Cu1006   1.997       .  S
O1003      C1464   1.277   1_545  A
O1004     Cu1006   1.999   1_556  S
O1004      C1463   1.279   1_545  A
Cu1005    Cu1462   2.370       .  S
Cu1006    Cu1461   2.368   1_545  S
C1007      O1460   1.278       .  A
C1007      C1192   1.476       .  S
C1008      O1459   1.278       .  A
C1008      C1201   1.478       .  S
C1009      O1458   1.276       .  A
C1009      C1141   1.487       .  S
C1010      O1457   1.275       .  A
C1010      C1261   1.487       .  S
O1011     Cu1019   2.000   1_554  S
O1011      C1021   1.276       .  A
O1012     Cu1019   1.993       .  S
O1012      C1022   1.277       .  A
O1013     Cu1019   2.005   1_554  S
O1013      C1023   1.279       .  A
O1014     Cu1019   2.006       .  S
O1014      C1024   1.279       .  A
O1015     Cu1020   1.986       .  S
O1015      C1024   1.275   1_554  A
O1016     Cu1020   1.987       .  S
O1016      C1023   1.274       .  A
O1017     Cu1020   2.016   1_556  S
O1017      C1022   1.278       .  A
O1018     Cu1020   2.014       .  S
O1018      C1021   1.279       .  A
Cu1019    Cu1020   2.368   1_556  S
C1021      C1240   1.483       .  S
C1022      C1129   1.480       .  S
C1023      C1156   1.486       .  S
C1024      C1165   1.485       .  S
O1025     Cu1489   2.001       .  S
O1025      C1035   1.278       .  A
O1026     Cu1033   2.003       .  S
O1026      C1036   1.277       .  A
O1027     Cu1033   2.020       .  S
O1027      C1493   1.279       .  A
O1028     Cu1033   2.021       .  S
O1028      C1494   1.280   1_545  A
O1029     Cu1034   2.002       .  S
O1030     Cu1034   2.002       .  S
O1031     Cu1490   2.010   1_545  S
O1032     Cu1034   1.995       .  S
Cu1033     O1481   1.996   1_545  S
Cu1034     O1487   2.000       .  S
C1035      C1105   1.490       .  S
C1036      C1117   1.488       .  S
C1037      O1483   1.277       .  A
C1037      C1216   1.470       .  S
C1038      O1484   1.279       .  A
C1038      C1324   1.479       .  S
O1039     Cu1047   2.003       .  S
O1040     Cu1047   1.999       .  S
O1041     Cu1047   2.008       .  S
O1042     Cu1047   2.010       .  S
O1043     Cu1048   2.010       .  S
O1043      C1052   1.278       .  A
O1044     Cu1048   2.009       .  S
O1044      C1051   1.277       .  A
O1045     Cu1048   2.004       .  S
O1045      C1050   1.277       .  A
O1046     Cu1048   2.004       .  S
O1046      C1049   1.278       .  A
C1049      C1120   1.485       .  S
C1050      C1108   1.489       .  S
C1051      C1276   1.473       .  S
C1052      C1180   1.481       .  S
O1053     Cu1061   2.002       .  S
O1053      C1063   1.277       .  A
O1054     Cu1517   2.008       .  S
O1054      C1064   1.278       .  A
O1055     Cu1061   1.997       .  S
O1055      C1521   1.276       .  A
O1056     Cu1061   1.998       .  S
O1056      C1522   1.277   1_545  A
O1057     Cu1062   2.008       .  S
O1057      C1066   1.277       .  A
O1058     Cu1062   2.009       .  S
O1058      C1065   1.278       .  A
O1059     Cu1062   1.997       .  S
O1059      C1064   1.277       .  A
O1060     Cu1518   2.017   1_545  S
O1060      C1063   1.280       .  A
Cu1061     O1510   1.999   1_545  S
Cu1061    Cu1518   2.372   1_545  S
Cu1062     O1516   2.004       .  S
Cu1062    Cu1517   2.370       .  S
C1063      C1093   1.492       .  S
C1064      C1081   1.481       .  S
C1065      O1511   1.277       .  A
C1065      C1252   1.480       .  S
C1066      O1512   1.277       .  A
C1066      C1144   1.476       .  S
O1067     Cu1075   2.000       .  S
O1067      C1077   1.277       .  A
O1068     Cu1075   2.002       .  S
O1068      C1078   1.278       .  A
O1069     Cu1075   2.004       .  S
O1069      C1079   1.277       .  A
O1070     Cu1075   1.999       .  S
O1070      C1080   1.277       .  A
O1071     Cu1076   2.012       .  S
O1071      C1080   1.278       .  A
O1072     Cu1076   2.012       .  S
O1072      C1079   1.280       .  A
O1073     Cu1076   2.011       .  S
O1073      C1078   1.278       .  A
O1074     Cu1076   2.012       .  S
O1074      C1077   1.278       .  A
Cu1075    Cu1076   2.369       .  S
C1077      C1132   1.484       .  S
C1078      C1228   1.483       .  S
C1079      C1096   1.491       .  S
C1080      C1084   1.483       .  S
C1081      C1082   1.405       .  A
C1081      C1086   1.414       .  A
C1082      C1083   1.402       .  A
C1082      H1087   1.085       .  S
C1083      C1084   1.414       .  A
C1083      C1090   1.444       .  S
C1084      C1085   1.405       .  A
C1085      C1086   1.397       .  A
C1085      H1088   1.085       .  S
C1086      C1089   1.445       .  S
C1089      N1091   1.157       .  T
C1090      N1092   1.157       .  T
C1093      C1094   1.407       .  A
C1093      C1098   1.417       .  A
C1094      C1095   1.403       .  A
C1094      H1099   1.085       .  S
C1095      C1096   1.418       .  A
C1095      C1102   1.445       .  S
C1096      C1097   1.405       .  A
C1097      C1098   1.399       .  A
C1097      H1100   1.085       .  S
C1098      C1101   1.444       .  S
C1101      N1103   1.157       .  T
C1102      N1104   1.158       .  T
C1105      C1106   1.407       .  A
C1106      C1107   1.399       .  A
C1106      H1111   1.085       .  S
C1107      C1108   1.416       .  A
C1107      C1114   1.445       .  S
C1109      C1110   1.397       .  A
C1109      H1112   1.085       .  S
C1110      C1113   1.445       .  S
C1113      N1115   1.157       .  T
C1114      N1116   1.158       .  T
C1117      C1122   1.417       .  A
C1118      C1119   1.401       .  A
C1118      H1123   1.085       .  S
C1119      C1126   1.444       .  S
C1120      C1121   1.405       .  A
C1121      C1122   1.400       .  A
C1121      H1124   1.085       .  S
C1122      C1125   1.445       .  S
C1125      N1127   1.158       .  T
C1126      N1128   1.157       .  T
C1129      C1130   1.403       .  A
C1129      C1134   1.413       .  A
C1130      C1131   1.396       .  A
C1130      H1135   1.089       .  S
C1131      C1132   1.415       .  A
C1131      C1138   1.445       .  S
C1132      C1133   1.407       .  A
C1133      C1134   1.403       .  A
C1133      H1136   1.089       .  S
C1134      C1137   1.444       .  S
C1137      N1139   1.157       .  T
C1138      N1140   1.157       .  T
C1141      C1598   1.408       .  A
C1141      C1146   1.416       .  A
C1142      C1597   1.408   1_545  A
C1142      C1143   1.395       .  A
C1142      H1147   1.084       .  S
C1143      C1600   1.407   1_545  A
C1143      C1150   1.446       .  S
C1144      C1599   1.408       .  A
C1144      C1145   1.404       .  A
C1145      C1146   1.404       .  A
C1145      H1148   1.085       .  S
C1146      C1149   1.444       .  S
C1149      N1151   1.157       .  T
C1150      N1152   1.157       .  T
C1153      C1154   1.405       .  A
C1153      C1158   1.416   1_554  A
C1154      C1155   1.397       .  A
C1154      H1159   1.085       .  S
C1155      C1156   1.418       .  A
C1155      C1162   1.445       .  S
C1156      C1157   1.405   1_554  A
C1157      C1158   1.397       .  A
C1157      H1160   1.085       .  S
C1158      C1161   1.445       .  S
C1161      N1163   1.157       .  T
C1162      N1164   1.158       .  T
C1165      C1166   1.406       .  A
C1165      C1170   1.417       .  A
C1166      C1167   1.400       .  A
C1166      H1171   1.084       .  S
C1167      C1168   1.416       .  A
C1167      C1174   1.445       .  S
C1168      C1169   1.405       .  A
C1169      C1170   1.394       .  A
C1169      H1172   1.084       .  S
C1170      C1173   1.446       .  S
C1173      N1175   1.158       .  T
C1174      N1176   1.158       .  T
C1177      C1178   1.406       .  A
C1178      C1179   1.400       .  A
C1178      H1183   1.085       .  S
C1179      C1180   1.412       .  A
C1179      C1186   1.445       .  S
C1181      C1182   1.401       .  A
C1181      H1184   1.085       .  S
C1182      C1185   1.444       .  S
C1185      N1187   1.157       .  T
C1186      N1188   1.157       .  T
C1189      C1190   1.403   1_556  A
C1189      C1650   1.412       .  A
C1190      C1191   1.398       .  A
C1190      H1195   1.085       .  S
C1191      C1192   1.413       .  A
C1191      C1198   1.445       .  S
C1192      C1649   1.404   1_554  A
C1193      C1648   1.404   1_545  A
C1193      C1194   1.395       .  A
C1193      H1196   1.085   1_556  S
C1194      C1645   1.417   1_545  A
C1194      C1197   1.445   1_556  S
C1197      N1199   1.158       .  T
C1198      N1200   1.157       .  T
C1201      C1658   1.403       .  A
C1201      C1206   1.414   1_554  A
C1202      C1657   1.403   1_546  A
C1202      C1203   1.396       .  A
C1202      H1207   1.085       .  S
C1203      C1660   1.412   1_546  A
C1203      C1210   1.445       .  S
C1204      C1659   1.414   1_556  A
C1204      C1205   1.405       .  A
C1205      C1206   1.400       .  A
C1205      H1208   1.085       .  S
C1206      C1209   1.445       .  S
C1209      N1211   1.157       .  T
C1210      N1212   1.157       .  T
C1213      C1670   1.409       .  A
C1214      C1669   1.407   1_545  A
C1214      C1215   1.403       .  A
C1214      H1219   1.085       .  S
C1215      C1672   1.413       .  A
C1215      C1222   1.444       .  S
C1216      C1671   1.407       .  A
C1217      C1218   1.400       .  A
C1217      H1220   1.085       .  S
C1218      C1221   1.444       .  S
C1221      N1223   1.157       .  T
C1222      N1224   1.157       .  T
C1225      C1226   1.406       .  A
C1225      C1230   1.416       .  A
C1226      C1227   1.403       .  A
C1226      H1231   1.084       .  S
C1227      C1228   1.414       .  A
C1227      C1234   1.444       .  S
C1228      C1229   1.403       .  A
C1229      C1230   1.398       .  A
C1229      H1232   1.085       .  S
C1230      C1233   1.445       .  S
C1233      N1235   1.157       .  T
C1234      N1236   1.157       .  T
C1237      C1238   1.406       .  A
C1237      C1242   1.413       .  A
C1238      C1239   1.398       .  A
C1238      H1243   1.085       .  S
C1239      C1240   1.413       .  A
C1239      C1246   1.445       .  S
C1240      C1241   1.407       .  A
C1241      C1242   1.402       .  A
C1241      H1244   1.085       .  S
C1242      C1245   1.444       .  S
C1245      N1247   1.157       .  T
C1246      N1248   1.157       .  T
C1249      C1250   1.407       .  A
C1249      C1710   1.415       .  A
C1250      C1251   1.402       .  A
C1250      H1255   1.085       .  S
C1251      C1252   1.412       .  A
C1251      C1258   1.444       .  S
C1252      C1709   1.403       .  A
C1253      C1708   1.405       .  A
C1253      C1254   1.401       .  A
C1253      H1256   1.085   1_545  S
C1254      C1705   1.415       .  A
C1254      C1257   1.444       .  S
C1257      N1259   1.157   1_545  T
C1258      N1260   1.157       .  T
C1261      C1262   1.406       .  A
C1261      C1722   1.419       .  A
C1262      C1263   1.402       .  A
C1262      H1267   1.085       .  S
C1263      C1264   1.413       .  A
C1263      C1270   1.445       .  S
C1264      C1721   1.401       .  A
C1265      C1720   1.403       .  A
C1265      C1266   1.400       .  A
C1265      H1268   1.085       .  S
C1266      C1717   1.417       .  A
C1266      C1269   1.445       .  S
C1269      N1271   1.157       .  T
C1270      N1272   1.157       .  T
C1273      C1274   1.408       .  A
C1274      C1275   1.397       .  A
C1274      H1279   1.084       .  S
C1275      C1276   1.408       .  A
C1275      C1282   1.445       .  S
C1277      C1278   1.400       .  A
C1277      H1280   1.085       .  S
C1278      C1281   1.444       .  S
C1281      N1283   1.157       .  T
C1282      N1284   1.157       .  T
C1285      C1286   1.406       .  A
C1285      C1290   1.415       .  A
C1286      C1287   1.399       .  A
C1286      H1291   1.085       .  S
C1287      C1288   1.416       .  A
C1287      C1294   1.445       .  S
C1288      C1289   1.406       .  A
C1289      C1290   1.398       .  A
C1289      H1292   1.085       .  S
C1290      C1293   1.445       .  S
C1293      N1295   1.157       .  T
C1294      N1296   1.157       .  T
C1297      C1298   1.406       .  A
C1297      C1302   1.414       .  A
C1298      C1299   1.398       .  A
C1298      H1303   1.085       .  S
C1299      C1300   1.415       .  A
C1299      C1306   1.445       .  S
C1300      C1301   1.407       .  A
C1301      C1302   1.397       .  A
C1301      H1304   1.085       .  S
C1302      C1305   1.445       .  S
C1305      N1307   1.157       .  T
C1306      N1308   1.157       .  T
C1309      C1314   1.413       .  A
C1310      C1311   1.401       .  A
C1310      H1315   1.085       .  S
C1311      C1318   1.445       .  S
C1312      C1313   1.405       .  A
C1313      C1314   1.400       .  A
C1313      H1316   1.085       .  S
C1314      C1317   1.444       .  S
C1317      N1319   1.157       .  T
C1318      N1320   1.157       .  T
C1321      C1380   1.485       .  S
C1321      C1782   1.418       .  A
C1322      C1323   1.398       .  A
C1322      H1327   1.085       .  S
C1323      C1330   1.445       .  S
C1324      C1781   1.401       .  A
C1325      C1780   1.402       .  A
C1325      C1326   1.403       .  A
C1325      H1328   1.085       .  S
C1326      C1777   1.419       .  A
C1326      C1329   1.444       .  S
C1329      N1331   1.157       .  T
C1330      N1332   1.157       .  T
C1333      C1334   1.405       .  A
C1333      C1338   1.415       .  A
C1334      C1335   1.397       .  A
C1334      H1339   1.085       .  S
C1335      C1336   1.416       .  A
C1335      C1342   1.445       .  S
C1336      C1337   1.406       .  A
C1337      C1338   1.399       .  A
C1337      H1340   1.085       .  S
C1338      C1341   1.445       .  S
C1341      N1343   1.158       .  T
C1342      N1344   1.157       .  T
C1345      C1346   1.407       .  A
C1345      C1350   1.415       .  A
C1346      C1347   1.400       .  A
C1346      H1351   1.085       .  S
C1347      C1348   1.415       .  A
C1347      C1354   1.445       .  S
C1348      C1349   1.405       .  A
C1349      C1350   1.397       .  A
C1349      H1352   1.085       .  S
C1350      C1353   1.445       .  S
C1353      N1355   1.157       .  T
C1354      N1356   1.158       .  T
C1357      C1362   1.417       .  A
C1358      C1359   1.402       .  A
C1358      H1363   1.085       .  S
C1359      C1366   1.445       .  S
C1360      C1361   1.403       .  A
C1361      C1362   1.399       .  A
C1361      H1364   1.085   1_655  S
C1362      C1365   1.444   1_655  S
C1365      N1367   1.157       .  T
C1366      N1368   1.157       .  T
O1369     Cu1377   2.012       .  S
O1370     Cu1377   2.012       .  S
O1371      C1381   1.278       .  A
O1372      C1382   1.279       .  A
O1373      C1382   1.277       .  A
O1374      C1381   1.277       .  A
O1375     Cu1378   1.999       .  S
O1376     Cu1378   1.998       .  S
C1379      C1816   1.486       .  S
C1381      C1792   1.487       .  S
C1382      C1804   1.486       .  S
O1383      C1393   1.278       .  A
O1384     Cu1391   1.995       .  S
O1384      C1394   1.276       .  A
O1385     Cu1391   2.011       .  S
O1385      C1395   1.279       .  A
O1386     Cu1391   2.014       .  S
O1386      C1396   1.279       .  A
O1387     Cu1392   2.004       .  S
O1388     Cu1392   2.004       .  S
O1389      C1394   1.279       .  A
O1390     Cu1392   1.999       .  S
O1390      C1393   1.276       .  A
C1393      C1741   1.485       .  S
C1394      C1756   1.485       .  S
C1395      C1729   1.477       .  S
C1396      C1768   1.485       .  S
O1397     Cu1405   2.010       .  S
O1397      C1407   1.278   1_565  A
O1398     Cu1405   2.013       .  S
O1398      C1408   1.278   1_565  A
O1399     Cu1405   1.997       .  S
O1399      C1409   1.278       .  A
O1400      C1410   1.276       .  A
O1401     Cu1406   2.003       .  S
O1401      C1410   1.278       .  A
O1402      C1409   1.276       .  A
O1403     Cu1406   2.006       .  S
O1404     Cu1406   2.004       .  S
C1407      C1720   1.484       .  S
C1408      C1705   1.488       .  S
C1409      C1753   1.485       .  S
C1410      C1744   1.485       .  S
O1411     Cu1419   2.003       .  S
O1411      C1421   1.278       .  A
O1412     Cu1419   2.005       .  S
O1412      C1422   1.278       .  A
O1413     Cu1419   2.010       .  S
O1413      C1423   1.279       .  A
O1414     Cu1419   2.011       .  S
O1414      C1424   1.279       .  A
O1415     Cu1420   2.001       .  S
O1415      C1424   1.277       .  A
O1416     Cu1420   2.002       .  S
O1416      C1423   1.276       .  A
O1417     Cu1420   2.008       .  S
O1417      C1422   1.278       .  A
O1418     Cu1420   1.998       .  S
O1418      C1421   1.277       .  A
Cu1419    Cu1420   2.369       .  S
C1421      C1789   1.486       .  S
C1422      C1801   1.487       .  S
C1423      C1693   1.478       .  S
C1424      C1681   1.485       .  S
O1425     Cu1433   1.999       .  S
O1426     Cu1433   1.995   1_554  S
O1427     Cu1433   2.000       .  S
O1429     Cu1434   2.007       .  S
O1429      C1438   1.279       .  A
O1430      C1437   1.277       .  A
O1431     Cu1434   2.003   1_554  S
O1431      C1436   1.277       .  A
O1432     Cu1434   2.004       .  S
C1435      C1669   1.481       .  S
C1436      C1813   1.477       .  S
C1437      C1660   1.471       .  S
C1438      C1645   1.486       .  S
O1439     Cu1447   1.988       .  S
O1439      C1449   1.276       .  A
O1440      C1450   1.278       .  A
O1441     Cu1447   2.007   1_554  S
O1441      C1451   1.278       .  A
O1442     Cu1447   2.007       .  S
O1442      C1452   1.279       .  A
O1443     Cu1448   2.002   1_556  S
O1444     Cu1448   2.000       .  S
O1445     Cu1448   1.998       .  S
O1445      C1450   1.276       .  A
O1446      C1449   1.277       .  A
C1449      C1624   1.475       .  S
C1450      C1609   1.483       .  S
C1451      C1765   1.480       .  S
C1452      C1633   1.483       .  S
O1453     Cu1461   1.995       .  S
O1453      C1463   1.275   1_554  A
O1454     Cu1461   1.991       .  S
O1454      C1464   1.276       .  A
O1455     Cu1461   2.028   1_556  S
O1455      C1465   1.280       .  A
O1456     Cu1461   2.024       .  S
O1456      C1466   1.281       .  A
O1457     Cu1462   1.989       .  S
O1458     Cu1462   1.985   1_556  S
O1459     Cu1462   2.005       .  S
O1460     Cu1462   2.004       .  S
C1463      C1648   1.485       .  S
C1464      C1657   1.474       .  S
C1465      C1597   1.492       .  S
C1466      C1717   1.485   1_565  S
O1467     Cu1475   1.990       .  S
O1467      C1477   1.275       .  A
O1468     Cu1475   1.990   1_556  S
O1468      C1478   1.276       .  A
O1469     Cu1475   1.997       .  S
O1469      C1479   1.277       .  A
O1470     Cu1475   1.992       .  S
O1470      C1480   1.277       .  A
O1471     Cu1476   1.997       .  S
O1471      C1480   1.276       .  A
O1472     Cu1476   1.996       .  S
O1472      C1479   1.276       .  A
O1473     Cu1476   2.019   1_556  S
O1473      C1478   1.279       .  A
O1474     Cu1476   2.023       .  S
O1474      C1477   1.281       .  A
Cu1475    Cu1476   2.370       .  S
C1477      C1696   1.489       .  S
C1478      C1585   1.482       .  S
C1479      C1612   1.481       .  S
C1480      C1621   1.474       .  S
O1481      C1491   1.277       .  A
O1482     Cu1489   2.002       .  S
O1482      C1492   1.277       .  A
O1483     Cu1489   2.010       .  S
O1484     Cu1489   2.008       .  S
O1485     Cu1490   2.002       .  S
O1486     Cu1490   2.003       .  S
O1488     Cu1490   2.008       .  S
C1491      C1561   1.482       .  S
C1492      C1573   1.482       .  S
C1493      C1672   1.481       .  S
C1494      C1780   1.478       .  S
O1495     Cu1503   2.001       .  S
O1496     Cu1503   1.998       .  S
O1497     Cu1503   1.998       .  S
O1498     Cu1503   2.003       .  S
O1499     Cu1504   2.003       .  S
O1499      C1508   1.277       .  A
O1500     Cu1504   2.003       .  S
O1500      C1507   1.278       .  A
O1501     Cu1504   2.004       .  S
O1501      C1506   1.278       .  A
O1502     Cu1504   2.011       .  S
O1502      C1505   1.279       .  A
C1505      C1576   1.484       .  S
C1506      C1564   1.482       .  S
C1507      C1732   1.484       .  S
C1508      C1636   1.480       .  S
O1509     Cu1517   2.011       .  S
O1509      C1519   1.278       .  A
O1510      C1520   1.277       .  A
O1511     Cu1517   2.000       .  S
O1512     Cu1517   2.001       .  S
O1513     Cu1518   2.017       .  S
O1513      C1522   1.278       .  A
O1514     Cu1518   2.021       .  S
O1514      C1521   1.280   1_565  A
O1515     Cu1518   2.009       .  S
O1515      C1520   1.278       .  A
O1516      C1519   1.279       .  A
C1519      C1549   1.493       .  S
C1520      C1537   1.475       .  S
C1521      C1708   1.483       .  S
C1522      C1600   1.476       .  S
O1523     Cu1531   1.998       .  S
O1523      C1533   1.277       .  A
O1524     Cu1531   2.002       .  S
O1524      C1534   1.278       .  A
O1525     Cu1531   2.001       .  S
O1525      C1535   1.277       .  A
O1526     Cu1531   1.999       .  S
O1526      C1536   1.276       .  A
O1527     Cu1532   2.012       .  S
O1527      C1536   1.279       .  A
O1528     Cu1532   2.012       .  S
O1528      C1535   1.279       .  A
O1529     Cu1532   2.008       .  S
O1529      C1534   1.278       .  A
O1530     Cu1532   2.012       .  S
O1530      C1533   1.278       .  A
Cu1531    Cu1532   2.369       .  S
C1533      C1588   1.484       .  S
C1534      C1684   1.480       .  S
C1535      C1552   1.493       .  S
C1536      C1540   1.478       .  S
C1537      C1538   1.404       .  A
C1537      C1542   1.411       .  A
C1538      C1539   1.400       .  A
C1538      H1543   1.085       .  S
C1539      C1540   1.412       .  A
C1539      C1546   1.444       .  S
C1540      C1541   1.405       .  A
C1541      C1542   1.399       .  A
C1541      H1544   1.085       .  S
C1542      C1545   1.445       .  S
C1545      N1547   1.157       .  T
C1546      N1548   1.157       .  T
C1549      C1550   1.406       .  A
C1549      C1554   1.417       .  A
C1550      C1551   1.399       .  A
C1550      H1555   1.085       .  S
C1551      C1552   1.417       .  A
C1551      C1558   1.445       .  S
C1552      C1553   1.407       .  A
C1553      C1554   1.402       .  A
C1553      H1556   1.085       .  S
C1554      C1557   1.444       .  S
C1557      N1559   1.157       .  T
C1558      N1560   1.157       .  T
C1561      C1562   1.405       .  A
C1562      C1563   1.398       .  A
C1562      H1567   1.085       .  S
C1563      C1564   1.414       .  A
C1563      C1570   1.445       .  S
C1565      C1566   1.399       .  A
C1565      H1568   1.085       .  S
C1566      C1569   1.445       .  S
C1569      N1571   1.157       .  T
C1570      N1572   1.157       .  T
C1573      C1578   1.414       .  A
C1574      C1575   1.398       .  A
C1574      H1579   1.085       .  S
C1575      C1582   1.445       .  S
C1576      C1577   1.405       .  A
C1577      C1578   1.400       .  A
C1577      H1580   1.085       .  S
C1578      C1581   1.444       .  S
C1581      N1583   1.157       .  T
C1582      N1584   1.157       .  T
C1585      C1586   1.404       .  A
C1585      C1590   1.413       .  A
C1586      C1587   1.396       .  A
C1586      H1591   1.089       .  S
C1587      C1588   1.415       .  A
C1587      C1594   1.445       .  S
C1588      C1589   1.406       .  A
C1589      C1590   1.403       .  A
C1589      H1592   1.089       .  S
C1590      C1593   1.444       .  S
C1593      N1595   1.157       .  T
C1594      N1596   1.157       .  T
C1597      C1602   1.419       .  A
C1598      C1599   1.396       .  A
C1598      H1603   1.085       .  S
C1599      C1606   1.445       .  S
C1600      C1601   1.404       .  A
C1601      C1602   1.407       .  A
C1601      H1604   1.085       .  S
C1602      C1605   1.444       .  S
C1605      N1607   1.158       .  T
C1606      N1608   1.157       .  T
C1609      C1610   1.406   1_554  A
C1609      C1614   1.415       .  A
C1610      C1611   1.397       .  A
C1610      H1615   1.085       .  S
C1611      C1612   1.414   1_556  A
C1611      C1618   1.445       .  S
C1612      C1613   1.404       .  A
C1613      C1614   1.397       .  A
C1613      H1616   1.085       .  S
C1614      C1617   1.445       .  S
C1617      N1619   1.157       .  T
C1618      N1620   1.157       .  T
C1621      C1622   1.404       .  A
C1621      C1626   1.412   1_554  A
C1622      C1623   1.396       .  A
C1622      H1627   1.084       .  S
C1623      C1624   1.413   1_554  A
C1623      C1630   1.445       .  S
C1624      C1625   1.405       .  A
C1625      C1626   1.396       .  A
C1625      H1628   1.084       .  S
C1626      C1629   1.445       .  S
C1629      N1631   1.157       .  T
C1630      N1632   1.157       .  T
C1633      C1634   1.405       .  A
C1634      C1635   1.399       .  A
C1634      H1639   1.085       .  S
C1635      C1636   1.414       .  A
C1635      C1642   1.445       .  S
C1637      C1638   1.399       .  A
C1637      H1640   1.085       .  S
C1638      C1641   1.445       .  S
C1641      N1643   1.157       .  T
C1642      N1644   1.157       .  T
C1645      C1646   1.406       .  A
C1646      C1647   1.399       .  A
C1646      H1651   1.085       .  S
C1647      C1648   1.417       .  A
C1647      C1654   1.445       .  S
C1649      C1650   1.398       .  A
C1649      H1652   1.085       .  S
C1650      C1653   1.445       .  S
C1653      N1655   1.157       .  T
C1654      N1656   1.157       .  T
C1657      C1662   1.413       .  A
C1658      C1659   1.398       .  A
C1658      H1663   1.085       .  S
C1659      C1666   1.445       .  S
C1660      C1661   1.402       .  A
C1661      C1662   1.396       .  A
C1661      H1664   1.085       .  S
C1662      C1665   1.445       .  S
C1665      N1667   1.157       .  T
C1666      N1668   1.157       .  T
C1670      C1671   1.400       .  A
C1670      H1675   1.084       .  S
C1671      C1678   1.445       .  S
C1673      C1674   1.399       .  A
C1673      H1676   1.085       .  S
C1674      C1677   1.445       .  S
C1677      N1679   1.157       .  T
C1678      N1680   1.157       .  T
C1681      C1682   1.406       .  A
C1681      C1686   1.415       .  A
C1682      C1683   1.401       .  A
C1682      H1687   1.084       .  S
C1683      C1684   1.413       .  A
C1683      C1690   1.445       .  S
C1684      C1685   1.403       .  A
C1685      C1686   1.399       .  A
C1685      H1688   1.085       .  S
C1686      C1689   1.445       .  S
C1689      N1691   1.157       .  T
C1690      N1692   1.157       .  T
C1693      C1694   1.400       .  A
C1693      C1698   1.412       .  A
C1694      C1695   1.399       .  A
C1694      H1699   1.085       .  S
C1695      C1696   1.420       .  A
C1695      C1702   1.445       .  S
C1696      C1697   1.407       .  A
C1697      C1698   1.402       .  A
C1697      H1700   1.084       .  S
C1698      C1701   1.444       .  S
C1701      N1703   1.157       .  T
C1702      N1704   1.157       .  T
C1705      C1706   1.408       .  A
C1706      C1707   1.401       .  A
C1706      H1711   1.085       .  S
C1707      C1708   1.411       .  A
C1707      C1714   1.444       .  S
C1709      C1710   1.398       .  A
C1709      H1712   1.085       .  S
C1710      C1713   1.444       .  S
C1713      N1715   1.157       .  T
C1714      N1716   1.157       .  T
C1717      C1718   1.404   1_545  A
C1718      C1719   1.402       .  A
C1718      H1723   1.085       .  S
C1719      C1720   1.415   1_565  A
C1719      C1726   1.444       .  S
C1721      C1722   1.398       .  A
C1721      H1724   1.085       .  S
C1722      C1725   1.445       .  S
C1725      N1727   1.157       .  T
C1726      N1728   1.157       .  T
C1729      C1730   1.403       .  A
C1730      C1731   1.399       .  A
C1730      H1735   1.085       .  S
C1731      C1732   1.416       .  A
C1731      C1738   1.445       .  S
C1733      C1734   1.399       .  A
C1733      H1736   1.085       .  S
C1734      C1737   1.445       .  S
C1737      N1739   1.157       .  T
C1738      N1740   1.157       .  T
C1741      C1742   1.405       .  A
C1741      C1746   1.416       .  A
C1742      C1743   1.398       .  A
C1742      H1747   1.085       .  S
C1743      C1744   1.416       .  A
C1743      C1750   1.445       .  S
C1744      C1745   1.405       .  A
C1745      C1746   1.399       .  A
C1745      H1748   1.085       .  S
C1746      C1749   1.445       .  S
C1749      N1751   1.157       .  T
C1750      N1752   1.157       .  T
C1753      C1754   1.405       .  A
C1753      C1758   1.416       .  A
C1754      C1755   1.397       .  A
C1754      H1759   1.085       .  S
C1755      C1756   1.416       .  A
C1755      C1762   1.445       .  S
C1756      C1757   1.405       .  A
C1757      C1758   1.398       .  A
C1757      H1760   1.085       .  S
C1758      C1761   1.445       .  S
C1761      N1763   1.157       .  T
C1762      N1764   1.158       .  T
C1765      C1770   1.411       .  A
C1766      C1767   1.399       .  A
C1766      H1771   1.085       .  S
C1767      C1774   1.445       .  S
C1768      C1769   1.407       .  A
C1769      C1770   1.399       .  A
C1769      H1772   1.085       .  S
C1770      C1773   1.445       .  S
C1773      N1775   1.157       .  T
C1774      N1776   1.158       .  T
C1778      C1779   1.399   1_565  A
C1778      H1783   1.085       .  S
C1779      C1786   1.445       .  S
C1781      C1782   1.398       .  A
C1781      H1784   1.085       .  S
C1782      C1785   1.445       .  S
C1785      N1787   1.157       .  T
C1786      N1788   1.157       .  T
C1789      C1790   1.407       .  A
C1789      C1794   1.415       .  A
C1790      C1791   1.401       .  A
C1790      H1795   1.085       .  S
C1791      C1792   1.416       .  A
C1791      C1798   1.445       .  S
C1792      C1793   1.406       .  A
C1793      C1794   1.396       .  A
C1793      H1796   1.085       .  S
C1794      C1797   1.445       .  S
C1797      N1799   1.157       .  T
C1798      N1800   1.158       .  T
C1801      C1802   1.406       .  A
C1801      C1806   1.415       .  A
C1802      C1803   1.400       .  A
C1802      H1807   1.085       .  S
C1803      C1804   1.415       .  A
C1803      C1810   1.444       .  S
C1804      C1805   1.406       .  A
C1805      C1806   1.400       .  A
C1805      H1808   1.085       .  S
C1806      C1809   1.445       .  S
C1809      N1811   1.157       .  T
C1810      N1812   1.157       .  T
C1813      C1818   1.411   1_565  A
C1814      C1815   1.401       .  A
C1814      H1819   1.085       .  S
C1815      C1822   1.445       .  S
C1816      C1817   1.406   1_565  A
C1817      C1818   1.399       .  A
C1817      H1820   1.085       .  S
C1818      C1821   1.445       .  S
C1821      N1823   1.157       .  T
C1822      N1824   1.157       .  T
