geometry optimzed in LAMMPS
_audit_creation_date              2020-11-30 
_audit_creation_method            'lammps2cif' 
_symmetry_space_group_name_H-M    'P1' 
_symmetry_Int_Tables_number       1 
_symmetry_cell_setting            triclinic 
loop_ 
_symmetry_equiv_pos_as_xyz 
  x,y,z 
_cell_length_a                    30.27485368217143 
_cell_length_b                    30.377620410837306 
_cell_length_c                    37.94122204194893 
_cell_angle_alpha                 90.25446032518292 
_cell_angle_beta                  89.81203402291986 
_cell_angle_gamma                 120.55766413217987 
loop_ 
_atom_site_label 
_atom_site_type_symbol 
_atom_site_fract_x 
_atom_site_fract_y 
_atom_site_fract_z 
_atom_site_charge 
O1          O  0.31280947  0.05467576  0.46749967    -0.71470
O2          O  0.26059128  0.44779649  0.03525949    -0.71680
O3          O  0.26306773  0.45007553  0.46552329    -0.71540
O4          O  0.31403856  0.05245575  0.03714052    -0.71550
O5          O  0.24213277  0.05200749  0.03682894    -0.71510
O6          O  0.19018523  0.44760027  0.46676007    -0.71530
O7          O  0.18871007  0.44737977  0.03655606    -0.71470
O8          O  0.23987546  0.05215085  0.46713524    -0.71660
V9          V  0.28621801  0.00123106  0.50135913     1.35240
V10         V  0.21662409  0.49978118  0.00181317     1.35170
C11         C  0.28611373  0.07379148  0.45747043     0.77770
C12         C  0.21443979  0.42729786  0.04585816     0.77830
C13         C  0.21687097  0.42876877  0.45585702     0.77700
C14         C  0.28833385  0.07234176  0.04720124     0.77660
C15         C  0.11214264  0.30609340  0.41661221     0.03440
C16         C  0.13903978  0.28585190  0.40012214    -0.12710
C17         C  0.19251431  0.31071052  0.40160597     0.00940
C18         C  0.21972188  0.35915805  0.41863386    -0.11230
C19         C  0.19235273  0.38021459  0.43526515     0.03430
C20         C  0.13870251  0.35175054  0.43525843    -0.10650
H21         H  0.11771954  0.25063477  0.38523745     0.09030
H22         H  0.26124530  0.37989732  0.41906421     0.06560
H23         H  0.11710513  0.36453827  0.45053835     0.06410
C24         C  0.39094112  0.19310655  0.41538750     0.03440
C25         C  0.36401999  0.15182941  0.43806828    -0.12710
C26         C  0.31046982  0.12232905  0.43719928     0.00940
C27         C  0.28303958  0.14154158  0.41886368    -0.11230
C28         C  0.31033052  0.18765168  0.39946929     0.03430
C29         C  0.36344554  0.21011221  0.39585933    -0.10650
H30         H  0.38501737  0.14153920  0.45588438     0.09030
H31         H  0.24153338  0.12117976  0.41970265     0.06560
H32         H  0.38345690  0.24112517  0.37733448     0.06410
O33         O  0.05469589  0.24163437  0.13400661    -0.71470
O34         O  0.44872616  0.18936824  0.20315806    -0.71680
O35         O  0.44975892  0.18789937  0.13327555    -0.71540
O36         O  0.05358967  0.23934378  0.20389295    -0.71550
O37         O  0.05570454  0.31180788  0.20326012    -0.71510
O38         O  0.44976162  0.25932094  0.13426223    -0.71530
O39         O  0.45075884  0.26178582  0.20413347    -0.71470
O40         O  0.05465857  0.31303836  0.13336724    -0.71660
V41         V  0.50170510  0.21596523  0.16858594     1.35240
V42         V  0.00272966  0.28509654  0.16875754     1.35170
C43         C  0.07479623  0.28753232  0.12341885     0.77770
C44         C  0.42950725  0.21579310  0.21383792     0.77830
C45         C  0.42959082  0.21336141  0.12357179     0.77700
C46         C  0.07477023  0.28532347  0.21381903     0.77660
C47         C  0.30555910  0.19401599  0.08651134     0.03440
C48         C  0.28765907  0.14939065  0.06672771    -0.12710
C49         C  0.31223700  0.12091171  0.06768015     0.00940
C50         C  0.36004096  0.14170515  0.08538533    -0.11230
C51         C  0.38086716  0.18941994  0.10314586     0.03430
C52         C  0.35198074  0.21357545  0.10457618    -0.10650
H53         H  0.25403145  0.13667789  0.05047735     0.09030
H54         H  0.38067232  0.12122334  0.08527350     0.06560
H55         H  0.36534746  0.24772402  0.12049042     0.06410
C56         C  0.19862293  0.30671969  0.08544934     0.03440
C57         C  0.15277052  0.28780830  0.10431730    -0.12710
C58         C  0.12333281  0.31133273  0.10271823     0.00940
C59         C  0.14342707  0.35836613  0.08445008    -0.11230
C60         C  0.19077798  0.37876130  0.06613221     0.03430
C61         C  0.21539942  0.35030690  0.06486415    -0.10650
H62         H  0.14017355  0.25463773  0.12096810     0.09030
H63         H  0.12261898  0.37867135  0.08446536     0.06560
H64         H  0.24834554  0.36249262  0.04794374     0.06410
O65         O  0.19022615  0.24072164  0.37071512    -0.71470
O66         O  0.24169429  0.18870243  0.30041733    -0.71680
O67         O  0.23967684  0.18656778  0.37022912    -0.71540
O68         O  0.18795977  0.23884875  0.30093206    -0.71550
O69         O  0.25977583  0.31135586  0.30187317    -0.71510
O70         O  0.31270222  0.25787117  0.36942418    -0.71530
O71         O  0.31353224  0.26116139  0.29968290    -0.71470
O72         O  0.26314137  0.31208985  0.37158605    -0.71660
V73         V  0.21630810  0.21512116  0.33556315     1.35240
V74         V  0.28588836  0.28421218  0.33563234     1.35170
C75         C  0.21703357  0.28665627  0.38145288     0.77770
C76         C  0.28780548  0.21521673  0.28973154     0.77830
C77         C  0.28592229  0.21180534  0.37971889     0.77700
C78         C  0.21347848  0.28498317  0.29159147     0.77660
C79         C  0.30473380  0.11074899  0.25079779     0.03440
C80         C  0.35139064  0.13775448  0.23300099    -0.12710
C81         C  0.38055116  0.19114107  0.23416705     0.00940
C82         C  0.35980644  0.21815670  0.25163213    -0.11230
C83         C  0.31160846  0.19080357  0.26911659     0.03430
C84         C  0.28651519  0.13741527  0.26996565    -0.10650
H85         H  0.36474995  0.11665619  0.21760758     0.09030
H86         H  0.38079402  0.25954595  0.25173606     0.06560
H87         H  0.25240012  0.11610928  0.28586180     0.06410
C88         C  0.19785732  0.39004939  0.25340672     0.03440
C89         C  0.15299706  0.36306571  0.23351357    -0.12710
C90         C  0.12316095  0.30972268  0.23465593     0.00940
C91         C  0.14269693  0.28243281  0.25280846    -0.11230
C92         C  0.18948037  0.30957689  0.27180078     0.03430
C93         C  0.21341050  0.36280146  0.27426766    -0.10650
H94         H  0.14130977  0.38391259  0.21656305     0.09030
H95         H  0.12197622  0.24105034  0.25219150     0.06560
H96         H  0.24497331  0.38328726  0.29228003     0.06410
C97         C  0.19869963  0.47172937  0.25115806    -0.05470
C98         C  0.22710099  0.44678797  0.25282667     0.00460
C99         C  0.28166393  0.47665074  0.25251375    -0.08110
C100        C  0.30468907  0.02978185  0.25457009    -0.05490
C101        C  0.27630840  0.05428441  0.25044906     0.00450
C102        C  0.22237998  0.02444968  0.24629263    -0.08020
C103        C  0.18867158  0.04563367  0.23487536     0.62360
H104        H  0.15718107  0.44961530  0.25191929     0.13050
H105        H  0.34586634  0.05260530  0.25812850     0.13060
C106        C  0.31722807  0.45517791  0.24846817     0.62590
F107        F  0.14967582  0.01087433  0.21315722    -0.22580
F108        F  0.21591516  0.09039273  0.21588161    -0.19900
F109        F  0.16669120  0.05419156  0.26413128    -0.19580
F110        F  0.29480965  0.41055487  0.22884729    -0.19630
F111        F  0.33095666  0.44654771  0.28132092    -0.19960
F112        F  0.36171882  0.48962714  0.23092933    -0.22630
C113        C  0.30536346  0.27523086  0.08533388    -0.05470
C114        C  0.27692930  0.22164073  0.08749982     0.00460
C115        C  0.22273767  0.19657412  0.09066958    -0.08110
C116        C  0.19923341  0.22566447  0.08666905    -0.05490
C117        C  0.22765491  0.27941544  0.08660806     0.00450
C118        C  0.28208093  0.30474375  0.08828929    -0.08020
C119        C  0.31714704  0.36176387  0.09486317     0.62360
H120        H  0.34671792  0.29462382  0.08271669     0.13050
H121        H  0.15776710  0.20586995  0.08510363     0.13060
C122        C  0.18834324  0.14041592  0.10002326     0.62590
F123        F  0.35905262  0.37041372  0.11484475    -0.22580
F124        F  0.29261476  0.38246550  0.11343860    -0.19900
F125        F  0.33503794  0.38690291  0.06310101    -0.19580
F126        F  0.21443497  0.12167047  0.11864787    -0.19630
F127        F  0.16786275  0.11192953  0.06964895    -0.19960
F128        F  0.14822113  0.13406911  0.12125996    -0.22630
C129        C  0.02964857  0.22540570  0.42112373    -0.05470
C130        C  0.05574265  0.27818231  0.41490744     0.00460
C131        C  0.02778807  0.30205650  0.40542708    -0.08110
C132        C  0.47441044  0.27355612  0.40806151    -0.05490
C133        C  0.44785446  0.22021524  0.41317690     0.00450
C134        C  0.47661446  0.19520670  0.41678063    -0.08020
C135        C  0.45466748  0.13774274  0.41415827     0.62360
H136        H  0.05134224  0.20700926  0.42742400     0.13050
H137        H  0.45355169  0.29359961  0.40566733     0.13060
C138        C  0.05272157  0.35590902  0.39046474     0.62590
F139        F  0.48806412  0.12779407  0.39552246    -0.22580
F140        F  0.40840939  0.11318152  0.39640785    -0.19900
F141        F  0.44873253  0.11738710  0.44756708    -0.19580
F142        F  0.09388270  0.36583989  0.36907240    -0.19630
F143        F  0.06904506  0.39150164  0.41739114    -0.19960
F144        F  0.01827613  0.36176247  0.36997031    -0.22630
O145        O  0.31280950  0.05467579  0.96749967    -0.71470
O146        O  0.26059123  0.44779646  0.53525949    -0.71680
O147        O  0.26306776  0.45007556  0.96552329    -0.71540
O148        O  0.31403851  0.05245572  0.53714052    -0.71550
O149        O  0.24213272  0.05200746  0.53682894    -0.71510
O150        O  0.19018527  0.44760029  0.96676007    -0.71530
O151        O  0.18871003  0.44737974  0.53655605    -0.71470
O152        O  0.23987549  0.05215088  0.96713524    -0.71660
V153        V  0.28621805  0.00123109  0.00135912     1.35240
V154        V  0.21662405  0.49978115  0.50181316     1.35170
C155        C  0.28611377  0.07379151  0.95747042     0.77770
C156        C  0.21443974  0.42729783  0.54585815     0.77830
C157        C  0.21687100  0.42876879  0.95585703     0.77700
C158        C  0.28833380  0.07234173  0.54720125     0.77660
C159        C  0.11214266  0.30609343  0.91661221     0.03440
C160        C  0.13903980  0.28585193  0.90012215    -0.12710
C161        C  0.19251432  0.31071054  0.90160598     0.00940
C162        C  0.21972190  0.35915807  0.91863386    -0.11230
C163        C  0.19235275  0.38021462  0.93526516     0.03430
C164        C  0.13870253  0.35175057  0.93525844    -0.10650
H165        H  0.11771956  0.25063480  0.88523745     0.09030
H166        H  0.26124532  0.37989734  0.91906422     0.06560
H167        H  0.11710516  0.36453830  0.95053836     0.06410
C168        C  0.39094114  0.19310658  0.91538749     0.03440
C169        C  0.36402001  0.15182944  0.93806827    -0.12710
C170        C  0.31046985  0.12232908  0.93719928     0.00940
C171        C  0.28303960  0.14154161  0.91886368    -0.11230
C172        C  0.31033053  0.18765170  0.89946929     0.03430
C173        C  0.36344556  0.21011224  0.89585932    -0.10650
H174        H  0.38501741  0.14153923  0.95588436     0.09030
H175        H  0.24153340  0.12117978  0.91970265     0.06560
H176        H  0.38345692  0.24112520  0.87733448     0.06410
O177        O  0.05469585  0.24163434  0.63400662    -0.71470
O178        O  0.44872611  0.18936821  0.70315806    -0.71680
O179        O  0.44975887  0.18789934  0.63327555    -0.71540
O180        O  0.05358962  0.23934375  0.70389296    -0.71550
O181        O  0.05570448  0.31180784  0.70326012    -0.71510
O182        O  0.44976157  0.25932091  0.63426223    -0.71530
O183        O  0.45075879  0.26178578  0.70413347    -0.71470
O184        O  0.05465852  0.31303833  0.63336725    -0.71660
V185        V  0.50170506  0.21596520  0.66858594     1.35240
V186        V  0.00272961  0.28509651  0.66875755     1.35170
C187        C  0.07479619  0.28753229  0.62341885     0.77770
C188        C  0.42950719  0.21579307  0.71383792     0.77830
C189        C  0.42959077  0.21336138  0.62357178     0.77700
C190        C  0.07477018  0.28532343  0.71381904     0.77660
C191        C  0.30555904  0.19401595  0.58651134     0.03440
C192        C  0.28765901  0.14939061  0.56672772    -0.12710
C193        C  0.31223695  0.12091168  0.56768016     0.00940
C194        C  0.36004091  0.14170511  0.58538534    -0.11230
C195        C  0.38086711  0.18941991  0.60314586     0.03430
C196        C  0.35198069  0.21357542  0.60457618    -0.10650
H197        H  0.25403139  0.13667785  0.55047736     0.09030
H198        H  0.38067227  0.12122331  0.58527350     0.06560
H199        H  0.36534742  0.24772399  0.62049041     0.06410
C200        C  0.19862288  0.30671965  0.58544934     0.03440
C201        C  0.15277047  0.28780827  0.60431730    -0.12710
C202        C  0.12333276  0.31133271  0.60271823     0.00940
C203        C  0.14342702  0.35836610  0.58445008    -0.11230
C204        C  0.19077793  0.37876127  0.56613220     0.03430
C205        C  0.21539936  0.35030686  0.56486415    -0.10650
H206        H  0.14017351  0.25463771  0.62096811     0.09030
H207        H  0.12261893  0.37867132  0.58446537     0.06560
H208        H  0.24834548  0.36249258  0.54794372     0.06410
O209        O  0.19022615  0.24072164  0.87071514    -0.71470
O210        O  0.24169425  0.18870240  0.80041735    -0.71680
O211        O  0.23967684  0.18656778  0.87022913    -0.71540
O212        O  0.18795973  0.23884872  0.80093207    -0.71550
O213        O  0.25977578  0.31135584  0.80187317    -0.71510
O214        O  0.31270222  0.25787117  0.86942417    -0.71530
O215        O  0.31353220  0.26116136  0.79968288    -0.71470
O216        O  0.26314137  0.31208985  0.87158605    -0.71660
V217        V  0.21630808  0.21512115  0.83556316     1.35240
V218        V  0.28588834  0.28421217  0.83563233     1.35170
C219        C  0.21703358  0.28665628  0.88145288     0.77770
C220        C  0.28780543  0.21521671  0.78973154     0.77830
C221        C  0.28592230  0.21180536  0.87971889     0.77700
C222        C  0.21347842  0.28498313  0.79159148     0.77660
C223        C  0.30473374  0.11074895  0.75079779     0.03440
C224        C  0.35139058  0.13775444  0.73300098    -0.12710
C225        C  0.38055110  0.19114103  0.73416705     0.00940
C226        C  0.35980639  0.21815666  0.75163212    -0.11230
C227        C  0.31160840  0.19080354  0.76911658     0.03430
C228        C  0.28651513  0.13741523  0.76996565    -0.10650
H229        H  0.36474989  0.11665615  0.71760757     0.09030
H230        H  0.38079396  0.25954592  0.75173605     0.06560
H231        H  0.25240006  0.11610924  0.78586180     0.06410
C232        C  0.19785724  0.39004935  0.75340676     0.03440
C233        C  0.15299698  0.36306567  0.73351360    -0.12710
C234        C  0.12316089  0.30972265  0.73465595     0.00940
C235        C  0.14269688  0.28243278  0.75280847    -0.11230
C236        C  0.18948030  0.30957686  0.77180080     0.03430
C237        C  0.21341042  0.36280142  0.77426770    -0.10650
H238        H  0.14130970  0.38391256  0.71656308     0.09030
H239        H  0.12197618  0.24105031  0.75219150     0.06560
H240        H  0.24497321  0.38328721  0.79228008     0.06410
C241        C  0.19869956  0.47172934  0.75115810    -0.05470
C242        C  0.22710092  0.44678793  0.75282671     0.00460
C243        C  0.28166386  0.47665070  0.75251378    -0.08110
C244        C  0.30468901  0.02978181  0.75457009    -0.05490
C245        C  0.27630834  0.05428438  0.75044906     0.00450
C246        C  0.22237992  0.02444965  0.74629264    -0.08020
C247        C  0.18867151  0.04563362  0.73487537     0.62360
H248        H  0.15718100  0.44961527  0.75191933     0.13050
H249        H  0.34586628  0.05260527  0.75812850     0.13060
C250        C  0.31722799  0.45517786  0.74846823     0.62590
F251        F  0.14967576  0.01087429  0.71315723    -0.22580
F252        F  0.21591508  0.09039269  0.71588163    -0.19900
F253        F  0.16669113  0.05419151  0.76413130    -0.19580
F254        F  0.29480958  0.41055482  0.72884734    -0.19630
F255        F  0.33095654  0.44654763  0.78132099    -0.19960
F256        F  0.36171877  0.48962709  0.73092942    -0.22630
C257        C  0.30536341  0.27523082  0.58533387    -0.05470
C258        C  0.27692925  0.22164069  0.58749982     0.00460
C259        C  0.22273762  0.19657409  0.59066959    -0.08110
C260        C  0.19923336  0.22566443  0.58666905    -0.05490
C261        C  0.22765486  0.27941540  0.58660806     0.00450
C262        C  0.28208088  0.30474371  0.58828927    -0.08020
C263        C  0.31714700  0.36176384  0.59486315     0.62360
H264        H  0.34671787  0.29462378  0.58271668     0.13050
H265        H  0.15776705  0.20586992  0.58510364     0.13060
C266        C  0.18834319  0.14041590  0.60002328     0.62590
F267        F  0.35905258  0.37041370  0.61484472    -0.22580
F268        F  0.29261472  0.38246548  0.61343858    -0.19900
F269        F  0.33503788  0.38690287  0.56310098    -0.19580
F270        F  0.21443493  0.12167045  0.61864790    -0.19630
F271        F  0.16786270  0.11192949  0.56964897    -0.19960
F272        F  0.14822109  0.13406909  0.62125998    -0.22630
C273        C  0.02964858  0.22540573  0.92112373    -0.05470
C274        C  0.05574267  0.27818235  0.91490744     0.00460
C275        C  0.02778809  0.30205653  0.90542709    -0.08110
C276        C  0.47441047  0.27355616  0.90806151    -0.05490
C277        C  0.44785449  0.22021527  0.91317688     0.00450
C278        C  0.47661448  0.19520673  0.91678062    -0.08020
C279        C  0.45466751  0.13774278  0.91415824     0.62360
H280        H  0.05134226  0.20700929  0.92742400     0.13050
H281        H  0.45355171  0.29359965  0.90566733     0.13060
C282        C  0.05272159  0.35590906  0.89046476     0.62590
F283        F  0.48806414  0.12779411  0.89552242    -0.22580
F284        F  0.40840941  0.11318156  0.89640783    -0.19900
F285        F  0.44873255  0.11738712  0.94756704    -0.19580
F286        F  0.09388273  0.36583994  0.86907242    -0.19630
F287        F  0.06904508  0.39150167  0.91739116    -0.19960
F288        F  0.01827616  0.36176252  0.86997033    -0.22630
O289        O  0.31280947  0.55467577  0.46749967    -0.71470
O290        O  0.26059128  0.94779649  0.03525949    -0.71680
O291        O  0.26306773  0.95007553  0.46552329    -0.71540
O292        O  0.31403856  0.55245576  0.03714052    -0.71550
O293        O  0.24213277  0.55200749  0.03682895    -0.71510
O294        O  0.19018523  0.94760026  0.46676007    -0.71530
O295        O  0.18871007  0.94737977  0.03655606    -0.71470
O296        O  0.23987546  0.55215086  0.46713523    -0.71660
V297        V  0.28621801  0.50123106  0.50135913     1.35240
V298        V  0.21662408  0.99978118  0.00181316     1.35170
C299        C  0.28611374  0.57379149  0.45747042     0.77770
C300        C  0.21443979  0.92729786  0.04585815     0.77830
C301        C  0.21687097  0.92876876  0.45585702     0.77700
C302        C  0.28833385  0.57234177  0.04720124     0.77660
C303        C  0.11214264  0.80609339  0.41661221     0.03440
C304        C  0.13903978  0.78585190  0.40012214    -0.12710
C305        C  0.19251431  0.81071052  0.40160597     0.00940
C306        C  0.21972188  0.85915805  0.41863386    -0.11230
C307        C  0.19235273  0.88021459  0.43526515     0.03430
C308        C  0.13870251  0.85175053  0.43525843    -0.10650
H309        H  0.11771955  0.75063477  0.38523745     0.09030
H310        H  0.26124530  0.87989732  0.41906422     0.06560
H311        H  0.11710513  0.86453826  0.45053835     0.06410
C312        C  0.39094112  0.69310655  0.41538749     0.03440
C313        C  0.36401999  0.65182941  0.43806827    -0.12710
C314        C  0.31046983  0.62232905  0.43719928     0.00940
C315        C  0.28303959  0.64154159  0.41886368    -0.11230
C316        C  0.31033052  0.68765168  0.39946928     0.03430
C317        C  0.36344555  0.71011221  0.39585932    -0.10650
H318        H  0.38501738  0.64153920  0.45588437     0.09030
H319        H  0.24153339  0.62117977  0.41970265     0.06560
H320        H  0.38345691  0.74112517  0.37733448     0.06410
O321        O  0.05469589  0.74163436  0.13400661    -0.71470
O322        O  0.44872617  0.68936825  0.20315806    -0.71680
O323        O  0.44975892  0.68789937  0.13327555    -0.71540
O324        O  0.05358967  0.73934378  0.20389295    -0.71550
O325        O  0.05570453  0.81180787  0.20326012    -0.71510
O326        O  0.44976162  0.75932095  0.13426223    -0.71530
O327        O  0.45075885  0.76178582  0.20413347    -0.71470
O328        O  0.05465857  0.81303836  0.13336724    -0.71660
V329        V  0.50170511  0.71596524  0.16858594     1.35240
V330        V  0.00272965  0.78509654  0.16875754     1.35170
C331        C  0.07479623  0.78753231  0.12341885     0.77770
C332        C  0.42950725  0.71579311  0.21383792     0.77830
C333        C  0.42959082  0.71336141  0.12357178     0.77700
C334        C  0.07477023  0.78532346  0.21381903     0.77660
C335        C  0.30555910  0.69401599  0.08651134     0.03440
C336        C  0.28765907  0.64939065  0.06672771    -0.12710
C337        C  0.31223701  0.62091172  0.06768015     0.00940
C338        C  0.36004096  0.64170515  0.08538533    -0.11230
C339        C  0.38086716  0.68941995  0.10314586     0.03430
C340        C  0.35198074  0.71357545  0.10457618    -0.10650
H341        H  0.25403146  0.63667789  0.05047735     0.09030
H342        H  0.38067232  0.62122334  0.08527350     0.06560
H343        H  0.36534747  0.74772403  0.12049041     0.06410
C344        C  0.19862293  0.80671969  0.08544934     0.03440
C345        C  0.15277052  0.78780830  0.10431730    -0.12710
C346        C  0.12333281  0.81133273  0.10271823     0.00940
C347        C  0.14342707  0.85836613  0.08445008    -0.11230
C348        C  0.19077797  0.87876130  0.06613221     0.03430
C349        C  0.21539942  0.85030689  0.06486415    -0.10650
H350        H  0.14017355  0.75463773  0.12096810     0.09030
H351        H  0.12261898  0.87867135  0.08446536     0.06560
H352        H  0.24834554  0.86249262  0.04794373     0.06410
O353        O  0.19022616  0.74072164  0.37071512    -0.71470
O354        O  0.24169429  0.68870243  0.30041733    -0.71680
O355        O  0.23967684  0.68656778  0.37022912    -0.71540
O356        O  0.18795977  0.73884875  0.30093205    -0.71550
O357        O  0.25977582  0.81135586  0.30187317    -0.71510
O358        O  0.31270222  0.75787117  0.36942417    -0.71530
O359        O  0.31353224  0.76116139  0.29968289    -0.71470
O360        O  0.26314137  0.81208985  0.37158605    -0.71660
V361        V  0.21630810  0.71512116  0.33556314     1.35240
V362        V  0.28588836  0.78421218  0.33563233     1.35170
C363        C  0.21703358  0.78665627  0.38145288     0.77770
C364        C  0.28780548  0.71521674  0.28973153     0.77830
C365        C  0.28592230  0.71180535  0.37971888     0.77700
C366        C  0.21347847  0.78498317  0.29159147     0.77660
C367        C  0.30473380  0.61074899  0.25079779     0.03440
C368        C  0.35139064  0.63775448  0.23300098    -0.12710
C369        C  0.38055116  0.69114107  0.23416705     0.00940
C370        C  0.35980645  0.71815670  0.25163212    -0.11230
C371        C  0.31160846  0.69080357  0.26911659     0.03430
C372        C  0.28651519  0.63741527  0.26996565    -0.10650
H373        H  0.36474995  0.61665619  0.21760757     0.09030
H374        H  0.38079402  0.75954595  0.25173605     0.06560
H375        H  0.25240012  0.61610928  0.28586180     0.06410
C376        C  0.19785732  0.89004939  0.25340672     0.03440
C377        C  0.15299705  0.86306571  0.23351357    -0.12710
C378        C  0.12316095  0.80972268  0.23465593     0.00940
C379        C  0.14269693  0.78243281  0.25280846    -0.11230
C380        C  0.18948037  0.80957689  0.27180078     0.03430
C381        C  0.21341050  0.86280146  0.27426766    -0.10650
H382        H  0.14130977  0.88391259  0.21656305     0.09030
H383        H  0.12197622  0.74105034  0.25219150     0.06560
H384        H  0.24497330  0.88328725  0.29228003     0.06410
C385        C  0.19869962  0.97172937  0.25115806    -0.05470
C386        C  0.22710099  0.94678797  0.25282667     0.00460
C387        C  0.28166393  0.97665074  0.25251375    -0.08110
C388        C  0.30468908  0.52978185  0.25457009    -0.05490
C389        C  0.27630840  0.55428442  0.25044906     0.00450
C390        C  0.22237999  0.52444968  0.24629263    -0.08020
C391        C  0.18867158  0.54563367  0.23487536     0.62360
H392        H  0.15718106  0.94961530  0.25191929     0.13050
H393        H  0.34586635  0.55260530  0.25812850     0.13060
C394        C  0.31722806  0.95517791  0.24846817     0.62590
F395        F  0.14967583  0.51087433  0.21315722    -0.22580
F396        F  0.21591516  0.59039273  0.21588161    -0.19900
F397        F  0.16669120  0.55419156  0.26413128    -0.19580
F398        F  0.29480965  0.91055486  0.22884729    -0.19630
F399        F  0.33095665  0.94654771  0.28132092    -0.19960
F400        F  0.36171882  0.98962714  0.23092934    -0.22630
C401        C  0.30536346  0.77523086  0.08533387    -0.05470
C402        C  0.27692931  0.72164073  0.08749982     0.00460
C403        C  0.22273767  0.69657412  0.09066958    -0.08110
C404        C  0.19923341  0.72566447  0.08666905    -0.05490
C405        C  0.22765491  0.77941544  0.08660806     0.00450
C406        C  0.28208093  0.80474375  0.08828929    -0.08020
C407        C  0.31714704  0.86176387  0.09486317     0.62360
H408        H  0.34671792  0.79462382  0.08271669     0.13050
H409        H  0.15776710  0.70586995  0.08510363     0.13060
C410        C  0.18834324  0.64041593  0.10002326     0.62590
F411        F  0.35905262  0.87041372  0.11484475    -0.22580
F412        F  0.29261476  0.88246550  0.11343859    -0.19900
F413        F  0.33503794  0.88690291  0.06310101    -0.19580
F414        F  0.21443498  0.62167048  0.11864788    -0.19630
F415        F  0.16786276  0.61192953  0.06964895    -0.19960
F416        F  0.14822114  0.63406911  0.12125996    -0.22630
C417        C  0.02964857  0.72540569  0.42112373    -0.05470
C418        C  0.05574265  0.77818231  0.41490744     0.00460
C419        C  0.02778807  0.80205649  0.40542708    -0.08110
C420        C  0.47441045  0.77355613  0.40806150    -0.05490
C421        C  0.44785447  0.72021524  0.41317689     0.00450
C422        C  0.47661446  0.69520670  0.41678062    -0.08020
C423        C  0.45466749  0.63774275  0.41415826     0.62360
H424        H  0.05134224  0.70700925  0.42742400     0.13050
H425        H  0.45355169  0.79359961  0.40566733     0.13060
C426        C  0.05272158  0.85590901  0.39046474     0.62590
F427        F  0.48806413  0.62779407  0.39552245    -0.22580
F428        F  0.40840939  0.61318153  0.39640784    -0.19900
F429        F  0.44873253  0.61738710  0.44756706    -0.19580
F430        F  0.09388271  0.86583989  0.36907240    -0.19630
F431        F  0.06904507  0.89150163  0.41739114    -0.19960
F432        F  0.01827614  0.86176247  0.36997031    -0.22630
O433        O  0.31280950  0.55467579  0.96749967    -0.71470
O434        O  0.26059123  0.94779646  0.53525949    -0.71680
O435        O  0.26306776  0.95007556  0.96552328    -0.71540
O436        O  0.31403851  0.55245572  0.53714052    -0.71550
O437        O  0.24213272  0.55200746  0.53682894    -0.71510
O438        O  0.19018526  0.94760029  0.96676007    -0.71530
O439        O  0.18871002  0.94737974  0.53655605    -0.71470
O440        O  0.23987549  0.55215088  0.96713524    -0.71660
V441        V  0.28621805  0.50123109  0.00135912     1.35240
V442        V  0.21662404  0.99978114  0.50181316     1.35170
C443        C  0.28611377  0.57379151  0.95747042     0.77770
C444        C  0.21443974  0.92729782  0.54585816     0.77830
C445        C  0.21687100  0.92876879  0.95585702     0.77700
C446        C  0.28833381  0.57234173  0.54720124     0.77660
C447        C  0.11214267  0.80609342  0.91661221     0.03440
C448        C  0.13903980  0.78585193  0.90012215    -0.12710
C449        C  0.19251432  0.81071054  0.90160597     0.00940
C450        C  0.21972190  0.85915807  0.91863386    -0.11230
C451        C  0.19235275  0.88021462  0.93526515     0.03430
C452        C  0.13870254  0.85175056  0.93525844    -0.10650
H453        H  0.11771956  0.75063480  0.88523745     0.09030
H454        H  0.26124532  0.87989734  0.91906422     0.06560
H455        H  0.11710516  0.86453830  0.95053835     0.06410
C456        C  0.39094114  0.69310658  0.91538749     0.03440
C457        C  0.36402002  0.65182944  0.93806827    -0.12710
C458        C  0.31046985  0.62232908  0.93719928     0.00940
C459        C  0.28303961  0.64154161  0.91886368    -0.11230
C460        C  0.31033054  0.68765171  0.89946929     0.03430
C461        C  0.36344556  0.71011224  0.89585932    -0.10650
H462        H  0.38501741  0.64153923  0.95588437     0.09030
H463        H  0.24153341  0.62117978  0.91970265     0.06560
H464        H  0.38345692  0.74112520  0.87733448     0.06410
O465        O  0.05469585  0.74163433  0.63400662    -0.71470
O466        O  0.44872612  0.68936820  0.70315806    -0.71680
O467        O  0.44975888  0.68789934  0.63327555    -0.71540
O468        O  0.05358963  0.73934374  0.70389296    -0.71550
O469        O  0.05570449  0.81180783  0.70326012    -0.71510
O470        O  0.44976158  0.75932091  0.63426223    -0.71530
O471        O  0.45075880  0.76178578  0.70413347    -0.71470
O472        O  0.05465853  0.81303832  0.63336725    -0.71660
V473        V  0.50170506  0.71596520  0.66858594     1.35240
V474        V  0.00272961  0.78509650  0.66875755     1.35170
C475        C  0.07479619  0.78753228  0.62341886     0.77770
C476        C  0.42950720  0.71579307  0.71383792     0.77830
C477        C  0.42959078  0.71336138  0.62357179     0.77700
C478        C  0.07477018  0.78532342  0.71381904     0.77660
C479        C  0.30555906  0.69401596  0.58651134     0.03440
C480        C  0.28765902  0.64939061  0.56672772    -0.12710
C481        C  0.31223696  0.62091168  0.56768016     0.00940
C482        C  0.36004091  0.64170512  0.58538534    -0.11230
C483        C  0.38086712  0.68941991  0.60314586     0.03430
C484        C  0.35198070  0.71357542  0.60457618    -0.10650
H485        H  0.25403140  0.63667786  0.55047736     0.09030
H486        H  0.38067227  0.62122331  0.58527350     0.06560
H487        H  0.36534743  0.74772400  0.62049041     0.06410
C488        C  0.19862288  0.80671965  0.58544935     0.03440
C489        C  0.15277048  0.78780827  0.60431731    -0.12710
C490        C  0.12333276  0.81133270  0.60271824     0.00940
C491        C  0.14342702  0.85836610  0.58445009    -0.11230
C492        C  0.19077793  0.87876126  0.56613221     0.03430
C493        C  0.21539937  0.85030686  0.56486415    -0.10650
H494        H  0.14017352  0.75463771  0.62096811     0.09030
H495        H  0.12261893  0.87867131  0.58446537     0.06560
H496        H  0.24834549  0.86249258  0.54794373     0.06410
O497        O  0.19022616  0.74072165  0.87071513    -0.71470
O498        O  0.24169426  0.68870241  0.80041734    -0.71680
O499        O  0.23967684  0.68656779  0.87022913    -0.71540
O500        O  0.18795974  0.73884873  0.80093207    -0.71550
O501        O  0.25977579  0.81135584  0.80187317    -0.71510
O502        O  0.31270222  0.75787118  0.86942417    -0.71530
O503        O  0.31353221  0.76116137  0.79968289    -0.71470
O504        O  0.26314137  0.81208986  0.87158605    -0.71660
V505        V  0.21630809  0.71512115  0.83556316     1.35240
V506        V  0.28588835  0.78421218  0.83563233     1.35170
C507        C  0.21703358  0.78665628  0.88145288     0.77770
C508        C  0.28780544  0.71521671  0.78973154     0.77830
C509        C  0.28592231  0.71180536  0.87971889     0.77700
C510        C  0.21347844  0.78498314  0.79159148     0.77660
C511        C  0.30473374  0.61074895  0.75079778     0.03440
C512        C  0.35139059  0.63775444  0.73300098    -0.12710
C513        C  0.38055111  0.69114103  0.73416705     0.00940
C514        C  0.35980640  0.71815666  0.75163212    -0.11230
C515        C  0.31160841  0.69080354  0.76911658     0.03430
C516        C  0.28651514  0.63741523  0.76996564    -0.10650
H517        H  0.36474989  0.61665615  0.71760757     0.09030
H518        H  0.38079398  0.75954592  0.75173606     0.06560
H519        H  0.25240006  0.61610925  0.78586179     0.06410
C520        C  0.19785726  0.89004935  0.75340674     0.03440
C521        C  0.15299699  0.86306567  0.73351358    -0.12710
C522        C  0.12316089  0.80972264  0.73465594     0.00940
C523        C  0.14269689  0.78243278  0.75280847    -0.11230
C524        C  0.18948032  0.80957686  0.77180079     0.03430
C525        C  0.21341044  0.86280142  0.77426768    -0.10650
H526        H  0.14130971  0.88391256  0.71656307     0.09030
H527        H  0.12197618  0.74105030  0.75219150     0.06560
H528        H  0.24497325  0.88328722  0.79228005     0.06410
C529        C  0.19869956  0.97172933  0.75115808    -0.05470
C530        C  0.22710093  0.94678793  0.75282669     0.00460
C531        C  0.28166387  0.97665070  0.75251376    -0.08110
C532        C  0.30468901  0.52978181  0.75457010    -0.05490
C533        C  0.27630834  0.55428438  0.75044906     0.00450
C534        C  0.22237992  0.52444965  0.74629264    -0.08020
C535        C  0.18867151  0.54563362  0.73487536     0.62360
H536        H  0.15718100  0.94961526  0.75191932     0.13050
H537        H  0.34586628  0.55260526  0.75812851     0.13060
C538        C  0.31722800  0.95517787  0.74846819     0.62590
F539        F  0.14967578  0.51087429  0.71315721    -0.22580
F540        F  0.21591509  0.59039270  0.71588163    -0.19900
F541        F  0.16669111  0.55419150  0.76413128    -0.19580
F542        F  0.29480959  0.91055483  0.72884730    -0.19630
F543        F  0.33095658  0.94654766  0.78132093    -0.19960
F544        F  0.36171876  0.98962710  0.73092935    -0.22630
C545        C  0.30536342  0.77523083  0.58533387    -0.05470
C546        C  0.27692927  0.72164070  0.58749983     0.00460
C547        C  0.22273763  0.69657409  0.59066959    -0.08110
C548        C  0.19923337  0.72566443  0.58666906    -0.05490
C549        C  0.22765486  0.77941540  0.58660807     0.00450
C550        C  0.28208089  0.80474372  0.58828928    -0.08020
C551        C  0.31714701  0.86176384  0.59486315     0.62360
H552        H  0.34671788  0.79462379  0.58271668     0.13050
H553        H  0.15776706  0.70586992  0.58510365     0.13060
C554        C  0.18834321  0.64041590  0.60002328     0.62590
F555        F  0.35905259  0.87041370  0.61484473    -0.22580
F556        F  0.29261473  0.88246549  0.61343858    -0.19900
F557        F  0.33503789  0.88690287  0.56310099    -0.19580
F558        F  0.21443495  0.62167046  0.61864790    -0.19630
F559        F  0.16786271  0.61192949  0.56964898    -0.19960
F560        F  0.14822110  0.63406909  0.62125999    -0.22630
C561        C  0.02964859  0.72540572  0.92112373    -0.05470
C562        C  0.05574267  0.77818234  0.91490744     0.00460
C563        C  0.02778809  0.80205653  0.90542709    -0.08110
C564        C  0.47441047  0.77355616  0.90806151    -0.05490
C565        C  0.44785449  0.72021527  0.91317689     0.00450
C566        C  0.47661448  0.69520673  0.91678062    -0.08020
C567        C  0.45466751  0.63774278  0.91415824     0.62360
H568        H  0.05134226  0.70700929  0.92742400     0.13050
H569        H  0.45355171  0.79359965  0.90566734     0.13060
C570        C  0.05272159  0.85590905  0.89046476     0.62590
F571        F  0.48806415  0.62779411  0.89552243    -0.22580
F572        F  0.40840941  0.61318156  0.89640783    -0.19900
F573        F  0.44873256  0.61738712  0.94756704    -0.19580
F574        F  0.09388273  0.86583994  0.86907242    -0.19630
F575        F  0.06904508  0.89150167  0.91739116    -0.19960
F576        F  0.01827616  0.86176251  0.86997032    -0.22630
O577        O  0.81280947  0.05467577  0.46749967    -0.71470
O578        O  0.76059127  0.44779649  0.03525949    -0.71680
O579        O  0.76306773  0.45007553  0.46552329    -0.71540
O580        O  0.81403856  0.05245576  0.03714052    -0.71550
O581        O  0.74213277  0.05200750  0.03682894    -0.71510
O582        O  0.69018523  0.44760027  0.46676007    -0.71530
O583        O  0.68871007  0.44737977  0.03655606    -0.71470
O584        O  0.73987546  0.05215085  0.46713524    -0.71660
V585        V  0.78621801  0.00123106  0.50135913     1.35240
V586        V  0.71662408  0.49978118  0.00181316     1.35170
C587        C  0.78611374  0.07379149  0.45747043     0.77770
C588        C  0.71443978  0.42729786  0.04585816     0.77830
C589        C  0.71687097  0.42876876  0.45585702     0.77700
C590        C  0.78833385  0.07234177  0.04720124     0.77660
C591        C  0.61214264  0.30609339  0.41661221     0.03440
C592        C  0.63903978  0.28585190  0.40012214    -0.12710
C593        C  0.69251430  0.31071052  0.40160597     0.00940
C594        C  0.71972188  0.35915805  0.41863386    -0.11230
C595        C  0.69235273  0.38021459  0.43526515     0.03430
C596        C  0.63870251  0.35175054  0.43525843    -0.10650
H597        H  0.61771954  0.25063477  0.38523745     0.09030
H598        H  0.76124529  0.37989732  0.41906421     0.06560
H599        H  0.61710513  0.36453827  0.45053835     0.06410
C600        C  0.89094112  0.19310655  0.41538750     0.03440
C601        C  0.86401999  0.15182941  0.43806828    -0.12710
C602        C  0.81046982  0.12232905  0.43719929     0.00940
C603        C  0.78303958  0.14154159  0.41886368    -0.11230
C604        C  0.81033052  0.18765168  0.39946929     0.03430
C605        C  0.86344554  0.21011221  0.39585933    -0.10650
H606        H  0.88501738  0.14153920  0.45588438     0.09030
H607        H  0.74153338  0.12117977  0.41970265     0.06560
H608        H  0.88345691  0.24112517  0.37733448     0.06410
O609        O  0.55469589  0.24163436  0.13400661    -0.71470
O610        O  0.94872617  0.18936825  0.20315806    -0.71680
O611        O  0.94975892  0.18789937  0.13327555    -0.71540
O612        O  0.55358967  0.23934378  0.20389295    -0.71550
O613        O  0.55570453  0.31180787  0.20326012    -0.71510
O614        O  0.94976162  0.25932094  0.13426223    -0.71530
O615        O  0.95075884  0.26178582  0.20413347    -0.71470
O616        O  0.55465857  0.31303836  0.13336724    -0.71660
V617        V  0.00170511  0.21596523  0.16858594     1.35240
V618        V  0.50272965  0.28509654  0.16875754     1.35170
C619        C  0.57479623  0.28753231  0.12341885     0.77770
C620        C  0.92950725  0.21579311  0.21383792     0.77830
C621        C  0.92959082  0.21336141  0.12357179     0.77700
C622        C  0.57477023  0.28532346  0.21381903     0.77660
C623        C  0.80555910  0.19401599  0.08651134     0.03440
C624        C  0.78765907  0.14939065  0.06672771    -0.12710
C625        C  0.81223700  0.12091172  0.06768015     0.00940
C626        C  0.86004096  0.14170515  0.08538533    -0.11230
C627        C  0.88086716  0.18941994  0.10314586     0.03430
C628        C  0.85198074  0.21357545  0.10457619    -0.10650
H629        H  0.75403145  0.13667789  0.05047735     0.09030
H630        H  0.88067232  0.12122334  0.08527350     0.06560
H631        H  0.86534746  0.24772402  0.12049042     0.06410
C632        C  0.69862292  0.30671968  0.08544934     0.03440
C633        C  0.65277051  0.28780830  0.10431730    -0.12710
C634        C  0.62333280  0.31133273  0.10271823     0.00940
C635        C  0.64342707  0.35836613  0.08445008    -0.11230
C636        C  0.69077797  0.37876130  0.06613221     0.03430
C637        C  0.71539941  0.35030689  0.06486415    -0.10650
H638        H  0.64017355  0.25463773  0.12096810     0.09030
H639        H  0.62261898  0.37867135  0.08446536     0.06560
H640        H  0.74834554  0.36249262  0.04794374     0.06410
O641        O  0.69022615  0.24072164  0.37071512    -0.71470
O642        O  0.74169429  0.18870243  0.30041733    -0.71680
O643        O  0.73967684  0.18656778  0.37022912    -0.71540
O644        O  0.68795977  0.23884875  0.30093206    -0.71550
O645        O  0.75977583  0.31135586  0.30187317    -0.71510
O646        O  0.81270222  0.25787117  0.36942418    -0.71530
O647        O  0.81353224  0.26116139  0.29968290    -0.71470
O648        O  0.76314137  0.31208985  0.37158605    -0.71660
V649        V  0.71630810  0.21512116  0.33556315     1.35240
V650        V  0.78588836  0.28421218  0.33563234     1.35170
C651        C  0.71703357  0.28665627  0.38145288     0.77770
C652        C  0.78780548  0.21521674  0.28973154     0.77830
C653        C  0.78592230  0.21180535  0.37971889     0.77700
C654        C  0.71347848  0.28498317  0.29159147     0.77660
C655        C  0.80473380  0.11074899  0.25079779     0.03440
C656        C  0.85139064  0.13775448  0.23300099    -0.12710
C657        C  0.88055116  0.19114107  0.23416705     0.00940
C658        C  0.85980645  0.21815670  0.25163213    -0.11230
C659        C  0.81160846  0.19080357  0.26911659     0.03430
C660        C  0.78651520  0.13741527  0.26996565    -0.10650
H661        H  0.86474995  0.11665619  0.21760758     0.09030
H662        H  0.88079402  0.25954595  0.25173606     0.06560
H663        H  0.75240012  0.11610928  0.28586180     0.06410
C664        C  0.69785732  0.39004939  0.25340671     0.03440
C665        C  0.65299706  0.36306571  0.23351356    -0.12710
C666        C  0.62316095  0.30972268  0.23465593     0.00940
C667        C  0.64269693  0.28243281  0.25280846    -0.11230
C668        C  0.68948037  0.30957689  0.27180078     0.03430
C669        C  0.71341050  0.36280146  0.27426766    -0.10650
H670        H  0.64130977  0.38391259  0.21656304     0.09030
H671        H  0.62197622  0.24105034  0.25219150     0.06560
H672        H  0.74497331  0.38328726  0.29228003     0.06410
C673        C  0.69869963  0.47172937  0.25115806    -0.05470
C674        C  0.72710099  0.44678797  0.25282666     0.00460
C675        C  0.78166393  0.47665074  0.25251374    -0.08110
C676        C  0.80468908  0.02978185  0.25457010    -0.05490
C677        C  0.77630841  0.05428442  0.25044906     0.00450
C678        C  0.72237999  0.02444969  0.24629263    -0.08020
C679        C  0.68867158  0.04563367  0.23487536     0.62360
H680        H  0.65718107  0.44961530  0.25191929     0.13050
H681        H  0.84586635  0.05260530  0.25812851     0.13060
C682        C  0.81722807  0.45517791  0.24846817     0.62590
F683        F  0.64967583  0.01087434  0.21315722    -0.22580
F684        F  0.71591517  0.09039273  0.21588161    -0.19900
F685        F  0.66669121  0.05419157  0.26413128    -0.19580
F686        F  0.79480965  0.41055486  0.22884729    -0.19630
F687        F  0.83095666  0.44654771  0.28132092    -0.19960
F688        F  0.86171882  0.48962714  0.23092933    -0.22630
C689        C  0.80536346  0.27523086  0.08533388    -0.05470
C690        C  0.77692930  0.22164073  0.08749983     0.00460
C691        C  0.72273767  0.19657412  0.09066958    -0.08110
C692        C  0.69923341  0.22566446  0.08666905    -0.05490
C693        C  0.72765490  0.27941543  0.08660806     0.00450
C694        C  0.78208093  0.30474374  0.08828929    -0.08020
C695        C  0.81714704  0.36176387  0.09486317     0.62360
H696        H  0.84671792  0.29462382  0.08271670     0.13050
H697        H  0.65776709  0.20586995  0.08510363     0.13060
C698        C  0.68834324  0.14041592  0.10002326     0.62590
F699        F  0.85905261  0.37041372  0.11484475    -0.22580
F700        F  0.79261476  0.38246550  0.11343860    -0.19900
F701        F  0.83503793  0.38690291  0.06310101    -0.19580
F702        F  0.71443497  0.12167047  0.11864787    -0.19630
F703        F  0.66786275  0.11192953  0.06964895    -0.19960
F704        F  0.64822113  0.13406911  0.12125996    -0.22630
C705        C  0.52964857  0.22540569  0.42112373    -0.05470
C706        C  0.55574265  0.27818231  0.41490744     0.00460
C707        C  0.52778807  0.30205649  0.40542708    -0.08110
C708        C  0.97441045  0.27355613  0.40806151    -0.05490
C709        C  0.94785447  0.22021524  0.41317690     0.00450
C710        C  0.97661446  0.19520670  0.41678063    -0.08020
C711        C  0.95466749  0.13774275  0.41415826     0.62360
H712        H  0.55134224  0.20700926  0.42742400     0.13050
H713        H  0.95355169  0.29359962  0.40566733     0.13060
C714        C  0.55272157  0.35590901  0.39046474     0.62590
F715        F  0.98806412  0.12779407  0.39552246    -0.22580
F716        F  0.90840939  0.11318153  0.39640785    -0.19900
F717        F  0.94873253  0.11738710  0.44756707    -0.19580
F718        F  0.59388270  0.36583989  0.36907240    -0.19630
F719        F  0.56904506  0.39150164  0.41739114    -0.19960
F720        F  0.51827613  0.36176247  0.36997031    -0.22630
O721        O  0.81280950  0.05467580  0.96749967    -0.71470
O722        O  0.76059123  0.44779646  0.53525949    -0.71680
O723        O  0.76306776  0.45007555  0.96552329    -0.71540
O724        O  0.81403851  0.05245572  0.53714052    -0.71550
O725        O  0.74213272  0.05200746  0.53682895    -0.71510
O726        O  0.69018526  0.44760029  0.96676007    -0.71530
O727        O  0.68871002  0.44737974  0.53655605    -0.71470
O728        O  0.73987549  0.05215088  0.96713524    -0.71660
V729        V  0.78621805  0.00123109  0.00135912     1.35240
V730        V  0.71662405  0.49978115  0.50181316     1.35170
C731        C  0.78611377  0.07379151  0.95747042     0.77770
C732        C  0.71443974  0.42729782  0.54585815     0.77830
C733        C  0.71687100  0.42876879  0.95585702     0.77700
C734        C  0.78833380  0.07234173  0.54720125     0.77660
C735        C  0.61214266  0.30609342  0.91661221     0.03440
C736        C  0.63903979  0.28585192  0.90012215    -0.12710
C737        C  0.69251432  0.31071054  0.90160598     0.00940
C738        C  0.71972190  0.35915807  0.91863386    -0.11230
C739        C  0.69235275  0.38021461  0.93526516     0.03430
C740        C  0.63870253  0.35175056  0.93525844    -0.10650
H741        H  0.61771955  0.25063480  0.88523745     0.09030
H742        H  0.76124531  0.37989734  0.91906422     0.06560
H743        H  0.61710516  0.36453830  0.95053836     0.06410
C744        C  0.89094114  0.19310658  0.91538749     0.03440
C745        C  0.86402002  0.15182944  0.93806827    -0.12710
C746        C  0.81046985  0.12232908  0.93719928     0.00940
C747        C  0.78303961  0.14154161  0.91886368    -0.11230
C748        C  0.81033053  0.18765171  0.89946928     0.03430
C749        C  0.86344556  0.21011224  0.89585932    -0.10650
H750        H  0.88501741  0.14153923  0.95588436     0.09030
H751        H  0.74153341  0.12117978  0.91970265     0.06560
H752        H  0.88345692  0.24112520  0.87733448     0.06410
O753        O  0.55469584  0.24163433  0.63400662    -0.71470
O754        O  0.94872611  0.18936821  0.70315806    -0.71680
O755        O  0.94975888  0.18789934  0.63327555    -0.71540
O756        O  0.55358962  0.23934374  0.70389296    -0.71550
O757        O  0.55570448  0.31180784  0.70326012    -0.71510
O758        O  0.94976157  0.25932091  0.63426223    -0.71530
O759        O  0.95075879  0.26178578  0.70413347    -0.71470
O760        O  0.55465852  0.31303833  0.63336724    -0.71660
V761        V  0.00170506  0.21596520  0.66858594     1.35240
V762        V  0.50272960  0.28509651  0.66875754     1.35170
C763        C  0.57479618  0.28753228  0.62341885     0.77770
C764        C  0.92950719  0.21579307  0.71383792     0.77830
C765        C  0.92959078  0.21336138  0.62357178     0.77700
C766        C  0.57477018  0.28532343  0.71381904     0.77660
C767        C  0.80555905  0.19401596  0.58651135     0.03440
C768        C  0.78765902  0.14939061  0.56672772    -0.12710
C769        C  0.81223695  0.12091168  0.56768016     0.00940
C770        C  0.86004091  0.14170512  0.58538534    -0.11230
C771        C  0.88086711  0.18941991  0.60314586     0.03430
C772        C  0.85198069  0.21357542  0.60457618    -0.10650
H773        H  0.75403140  0.13667785  0.55047736     0.09030
H774        H  0.88067227  0.12122331  0.58527350     0.06560
H775        H  0.86534742  0.24772400  0.62049041     0.06410
C776        C  0.69862288  0.30671965  0.58544934     0.03440
C777        C  0.65277047  0.28780827  0.60431730    -0.12710
C778        C  0.62333276  0.31133270  0.60271823     0.00940
C779        C  0.64342702  0.35836610  0.58445008    -0.11230
C780        C  0.69077792  0.37876126  0.56613221     0.03430
C781        C  0.71539936  0.35030686  0.56486415    -0.10650
H782        H  0.64017351  0.25463770  0.62096811     0.09030
H783        H  0.62261893  0.37867132  0.58446536     0.06560
H784        H  0.74834548  0.36249258  0.54794373     0.06410
O785        O  0.69022615  0.24072164  0.87071513    -0.71470
O786        O  0.74169425  0.18870240  0.80041734    -0.71680
O787        O  0.73967684  0.18656778  0.87022913    -0.71540
O788        O  0.68795972  0.23884872  0.80093207    -0.71550
O789        O  0.75977578  0.31135584  0.80187317    -0.71510
O790        O  0.81270222  0.25787117  0.86942416    -0.71530
O791        O  0.81353220  0.26116136  0.79968288    -0.71470
O792        O  0.76314137  0.31208985  0.87158605    -0.71660
V793        V  0.71630808  0.21512115  0.83556316     1.35240
V794        V  0.78588834  0.28421217  0.83563233     1.35170
C795        C  0.71703358  0.28665628  0.88145288     0.77770
C796        C  0.78780543  0.21521671  0.78973153     0.77830
C797        C  0.78592230  0.21180536  0.87971888     0.77700
C798        C  0.71347842  0.28498313  0.79159148     0.77660
C799        C  0.80473374  0.11074895  0.75079778     0.03440
C800        C  0.85139058  0.13775444  0.73300098    -0.12710
C801        C  0.88055111  0.19114103  0.73416705     0.00940
C802        C  0.85980639  0.21815666  0.75163212    -0.11230
C803        C  0.81160840  0.19080354  0.76911658     0.03430
C804        C  0.78651514  0.13741523  0.76996565    -0.10650
H805        H  0.86474989  0.11665615  0.71760757     0.09030
H806        H  0.88079396  0.25954592  0.75173605     0.06560
H807        H  0.75240006  0.11610924  0.78586180     0.06410
C808        C  0.69785724  0.39004935  0.75340675     0.03440
C809        C  0.65299698  0.36306567  0.73351359    -0.12710
C810        C  0.62316088  0.30972265  0.73465595     0.00940
C811        C  0.64269687  0.28243277  0.75280847    -0.11230
C812        C  0.68948030  0.30957685  0.77180080     0.03430
C813        C  0.71341042  0.36280142  0.77426769    -0.10650
H814        H  0.64130970  0.38391256  0.71656308     0.09030
H815        H  0.62197618  0.24105030  0.75219150     0.06560
H816        H  0.74497321  0.38328721  0.79228008     0.06410
C817        C  0.69869956  0.47172933  0.75115809    -0.05470
C818        C  0.72710092  0.44678793  0.75282670     0.00460
C819        C  0.78166386  0.47665070  0.75251378    -0.08110
C820        C  0.80468902  0.02978181  0.75457009    -0.05490
C821        C  0.77630834  0.05428438  0.75044906     0.00450
C822        C  0.72237993  0.02444965  0.74629264    -0.08020
C823        C  0.68867151  0.04563362  0.73487537     0.62360
H824        H  0.65718100  0.44961527  0.75191932     0.13050
H825        H  0.84586629  0.05260527  0.75812850     0.13060
C826        C  0.81722799  0.45517786  0.74846823     0.62590
F827        F  0.64967577  0.01087429  0.71315723    -0.22580
F828        F  0.71591509  0.09039269  0.71588162    -0.19900
F829        F  0.66669113  0.05419151  0.76413129    -0.19580
F830        F  0.79480958  0.41055482  0.72884733    -0.19630
F831        F  0.83095654  0.44654764  0.78132098    -0.19960
F832        F  0.86171877  0.48962709  0.73092941    -0.22630
C833        C  0.80536341  0.27523082  0.58533387    -0.05470
C834        C  0.77692926  0.22164069  0.58749983     0.00460
C835        C  0.72273762  0.19657409  0.59066959    -0.08110
C836        C  0.69923336  0.22566443  0.58666906    -0.05490
C837        C  0.72765486  0.27941540  0.58660806     0.00450
C838        C  0.78208088  0.30474371  0.58828928    -0.08020
C839        C  0.81714700  0.36176384  0.59486315     0.62360
H840        H  0.84671787  0.29462378  0.58271668     0.13050
H841        H  0.65776705  0.20586991  0.58510365     0.13060
C842        C  0.68834320  0.14041590  0.60002328     0.62590
F843        F  0.85905258  0.37041369  0.61484473    -0.22580
F844        F  0.79261472  0.38246548  0.61343858    -0.19900
F845        F  0.83503788  0.38690287  0.56310099    -0.19580
F846        F  0.71443494  0.12167045  0.61864790    -0.19630
F847        F  0.66786270  0.11192949  0.56964898    -0.19960
F848        F  0.64822109  0.13406909  0.62125998    -0.22630
C849        C  0.52964858  0.22540572  0.92112373    -0.05470
C850        C  0.55574266  0.27818234  0.91490744     0.00460
C851        C  0.52778809  0.30205653  0.90542708    -0.08110
C852        C  0.97441047  0.27355616  0.90806151    -0.05490
C853        C  0.94785449  0.22021527  0.91317689     0.00450
C854        C  0.97661448  0.19520673  0.91678061    -0.08020
C855        C  0.95466751  0.13774278  0.91415823     0.62360
H856        H  0.55134226  0.20700928  0.92742400     0.13050
H857        H  0.95355171  0.29359965  0.90566733     0.13060
C858        C  0.55272159  0.35590905  0.89046476     0.62590
F859        F  0.98806414  0.12779412  0.89552242    -0.22580
F860        F  0.90840941  0.11318157  0.89640782    -0.19900
F861        F  0.94873256  0.11738712  0.94756704    -0.19580
F862        F  0.59388273  0.36583993  0.86907241    -0.19630
F863        F  0.56904509  0.39150167  0.91739116    -0.19960
F864        F  0.51827616  0.36176252  0.86997032    -0.22630
O865        O  0.81280947  0.55467577  0.46749967    -0.71470
O866        O  0.76059128  0.94779649  0.03525949    -0.71680
O867        O  0.76306773  0.95007553  0.46552329    -0.71540
O868        O  0.81403856  0.55245575  0.03714052    -0.71550
O869        O  0.74213277  0.55200749  0.03682894    -0.71510
O870        O  0.69018523  0.94760027  0.46676007    -0.71530
O871        O  0.68871007  0.94737977  0.03655606    -0.71470
O872        O  0.73987546  0.55215086  0.46713524    -0.71660
V873        V  0.78621801  0.50123106  0.50135913     1.35240
V874        V  0.71662409  0.99978118  0.00181316     1.35170
C875        C  0.78611374  0.57379149  0.45747042     0.77770
C876        C  0.71443979  0.92729786  0.04585815     0.77830
C877        C  0.71687097  0.92876876  0.45585702     0.77700
C878        C  0.78833385  0.57234176  0.04720124     0.77660
C879        C  0.61214265  0.80609340  0.41661220     0.03440
C880        C  0.63903979  0.78585190  0.40012214    -0.12710
C881        C  0.69251431  0.81071052  0.40160597     0.00940
C882        C  0.71972188  0.85915805  0.41863386    -0.11230
C883        C  0.69235273  0.88021459  0.43526515     0.03430
C884        C  0.63870251  0.85175054  0.43525843    -0.10650
H885        H  0.61771955  0.75063477  0.38523744     0.09030
H886        H  0.76124530  0.87989732  0.41906422     0.06560
H887        H  0.61710513  0.86453827  0.45053835     0.06410
C888        C  0.89094112  0.69310654  0.41538749     0.03440
C889        C  0.86401999  0.65182941  0.43806827    -0.12710
C890        C  0.81046983  0.62232905  0.43719928     0.00940
C891        C  0.78303959  0.64154159  0.41886368    -0.11230
C892        C  0.81033052  0.68765168  0.39946929     0.03430
C893        C  0.86344554  0.71011221  0.39585932    -0.10650
H894        H  0.88501738  0.64153919  0.45588437     0.09030
H895        H  0.74153339  0.62117977  0.41970265     0.06560
H896        H  0.88345691  0.74112516  0.37733447     0.06410
O897        O  0.55469589  0.74163437  0.13400661    -0.71470
O898        O  0.94872617  0.68936824  0.20315806    -0.71680
O899        O  0.94975892  0.68789937  0.13327555    -0.71540
O900        O  0.55358968  0.73934378  0.20389295    -0.71550
O901        O  0.55570454  0.81180788  0.20326012    -0.71510
O902        O  0.94976162  0.75932094  0.13426223    -0.71530
O903        O  0.95075884  0.76178582  0.20413347    -0.71470
O904        O  0.55465857  0.81303836  0.13336724    -0.71660
V905        V  0.00170511  0.71596523  0.16858594     1.35240
V906        V  0.50272966  0.78509654  0.16875754     1.35170
C907        C  0.57479623  0.78753232  0.12341885     0.77770
C908        C  0.92950725  0.71579311  0.21383792     0.77830
C909        C  0.92959082  0.71336141  0.12357178     0.77700
C910        C  0.57477023  0.78532347  0.21381903     0.77660
C911        C  0.80555910  0.69401599  0.08651134     0.03440
C912        C  0.78765907  0.64939065  0.06672771    -0.12710
C913        C  0.81223700  0.62091171  0.06768015     0.00940
C914        C  0.86004096  0.64170515  0.08538533    -0.11230
C915        C  0.88086716  0.68941994  0.10314586     0.03430
C916        C  0.85198074  0.71357545  0.10457618    -0.10650
H917        H  0.75403145  0.63667789  0.05047735     0.09030
H918        H  0.88067232  0.62122334  0.08527350     0.06560
H919        H  0.86534746  0.74772402  0.12049041     0.06410
C920        C  0.69862293  0.80671969  0.08544934     0.03440
C921        C  0.65277052  0.78780830  0.10431730    -0.12710
C922        C  0.62333281  0.81133273  0.10271823     0.00940
C923        C  0.64342707  0.85836613  0.08445008    -0.11230
C924        C  0.69077798  0.87876130  0.06613221     0.03430
C925        C  0.71539942  0.85030690  0.06486415    -0.10650
H926        H  0.64017356  0.75463773  0.12096810     0.09030
H927        H  0.62261898  0.87867135  0.08446536     0.06560
H928        H  0.74834554  0.86249262  0.04794373     0.06410
O929        O  0.69022616  0.74072164  0.37071512    -0.71470
O930        O  0.74169429  0.68870243  0.30041733    -0.71680
O931        O  0.73967684  0.68656778  0.37022912    -0.71540
O932        O  0.68795977  0.73884875  0.30093206    -0.71550
O933        O  0.75977583  0.81135587  0.30187317    -0.71510
O934        O  0.81270222  0.75787117  0.36942418    -0.71530
O935        O  0.81353224  0.76116139  0.29968290    -0.71470
O936        O  0.76314137  0.81208985  0.37158605    -0.71660
V937        V  0.71630810  0.71512116  0.33556315     1.35240
V938        V  0.78588836  0.78421218  0.33563233     1.35170
C939        C  0.71703358  0.78665627  0.38145288     0.77770
C940        C  0.78780548  0.71521673  0.28973154     0.77830
C941        C  0.78592230  0.71180535  0.37971889     0.77700
C942        C  0.71347848  0.78498317  0.29159147     0.77660
C943        C  0.80473380  0.61074899  0.25079779     0.03440
C944        C  0.85139064  0.63775448  0.23300099    -0.12710
C945        C  0.88055116  0.69114107  0.23416705     0.00940
C946        C  0.85980644  0.71815670  0.25163212    -0.11230
C947        C  0.81160846  0.69080357  0.26911659     0.03430
C948        C  0.78651519  0.63741527  0.26996565    -0.10650
H949        H  0.86474995  0.61665619  0.21760758     0.09030
H950        H  0.88079401  0.75954595  0.25173605     0.06560
H951        H  0.75240012  0.61610928  0.28586180     0.06410
C952        C  0.69785732  0.89004939  0.25340672     0.03440
C953        C  0.65299706  0.86306571  0.23351357    -0.12710
C954        C  0.62316095  0.80972268  0.23465593     0.00940
C955        C  0.64269694  0.78243281  0.25280846    -0.11230
C956        C  0.68948037  0.80957689  0.27180078     0.03430
C957        C  0.71341050  0.86280146  0.27426766    -0.10650
H958        H  0.64130977  0.88391259  0.21656305     0.09030
H959        H  0.62197623  0.74105034  0.25219150     0.06560
H960        H  0.74497331  0.88328726  0.29228003     0.06410
C961        C  0.69869963  0.97172937  0.25115806    -0.05470
C962        C  0.72710099  0.94678797  0.25282667     0.00460
C963        C  0.78166394  0.97665074  0.25251375    -0.08110
C964        C  0.80468908  0.52978185  0.25457009    -0.05490
C965        C  0.77630840  0.55428441  0.25044906     0.00450
C966        C  0.72237999  0.52444968  0.24629263    -0.08020
C967        C  0.68867158  0.54563367  0.23487536     0.62360
H968        H  0.65718107  0.94961530  0.25191929     0.13050
H969        H  0.84586634  0.55260530  0.25812851     0.13060
C970        C  0.81722807  0.95517791  0.24846817     0.62590
F971        F  0.64967582  0.51087433  0.21315722    -0.22580
F972        F  0.71591516  0.59039273  0.21588161    -0.19900
F973        F  0.66669121  0.55419157  0.26413128    -0.19580
F974        F  0.79480965  0.91055487  0.22884729    -0.19630
F975        F  0.83095666  0.94654771  0.28132092    -0.19960
F976        F  0.86171882  0.98962715  0.23092933    -0.22630
C977        C  0.80536346  0.77523086  0.08533387    -0.05470
C978        C  0.77692931  0.72164073  0.08749982     0.00460
C979        C  0.72273767  0.69657412  0.09066958    -0.08110
C980        C  0.69923341  0.72566447  0.08666904    -0.05490
C981        C  0.72765491  0.77941544  0.08660806     0.00450
C982        C  0.78208093  0.80474375  0.08828928    -0.08020
C983        C  0.81714705  0.86176387  0.09486317     0.62360
H984        H  0.84671792  0.79462382  0.08271669     0.13050
H985        H  0.65776710  0.70586995  0.08510363     0.13060
C986        C  0.68834324  0.64041593  0.10002326     0.62590
F987        F  0.85905262  0.87041372  0.11484475    -0.22580
F988        F  0.79261476  0.88246550  0.11343859    -0.19900
F989        F  0.83503794  0.88690291  0.06310101    -0.19580
F990        F  0.71443497  0.62167047  0.11864787    -0.19630
F991        F  0.66786275  0.61192953  0.06964895    -0.19960
F992        F  0.64822113  0.63406911  0.12125996    -0.22630
C993        C  0.52964857  0.72540570  0.42112373    -0.05470
C994        C  0.55574265  0.77818231  0.41490743     0.00460
C995        C  0.52778807  0.80205650  0.40542708    -0.08110
C996        C  0.97441045  0.77355612  0.40806150    -0.05490
C997        C  0.94785447  0.72021523  0.41317689     0.00450
C998        C  0.97661446  0.69520669  0.41678062    -0.08020
C999        C  0.95466749  0.63774274  0.41415825     0.62360
H1000       H  0.55134225  0.70700926  0.42742400     0.13050
H1001       H  0.95355169  0.79359961  0.40566732     0.13060
C1002       C  0.55272157  0.85590902  0.39046474     0.62590
F1003       F  0.98806412  0.62779407  0.39552244    -0.22580
F1004       F  0.90840939  0.61318152  0.39640784    -0.19900
F1005       F  0.94873253  0.61738709  0.44756705    -0.19580
F1006       F  0.59388271  0.86583989  0.36907239    -0.19630
F1007       F  0.56904507  0.89150164  0.41739114    -0.19960
F1008       F  0.51827613  0.86176247  0.36997031    -0.22630
O1009       O  0.81280950  0.55467579  0.96749967    -0.71470
O1010       O  0.76059123  0.94779646  0.53525949    -0.71680
O1011       O  0.76306776  0.95007556  0.96552328    -0.71540
O1012       O  0.81403851  0.55245572  0.53714052    -0.71550
O1013       O  0.74213272  0.55200746  0.53682894    -0.71510
O1014       O  0.69018527  0.94760030  0.96676007    -0.71530
O1015       O  0.68871003  0.94737974  0.53655605    -0.71470
O1016       O  0.73987549  0.55215088  0.96713524    -0.71660
V1017       V  0.78621805  0.50123109  0.00135912     1.35240
V1018       V  0.71662405  0.99978115  0.50181316     1.35170
C1019       C  0.78611377  0.57379151  0.95747042     0.77770
C1020       C  0.71443974  0.92729782  0.54585816     0.77830
C1021       C  0.71687100  0.92876879  0.95585702     0.77700
C1022       C  0.78833380  0.57234173  0.54720125     0.77660
C1023       C  0.61214267  0.80609343  0.91661221     0.03440
C1024       C  0.63903980  0.78585193  0.90012215    -0.12710
C1025       C  0.69251432  0.81071054  0.90160597     0.00940
C1026       C  0.71972190  0.85915807  0.91863386    -0.11230
C1027       C  0.69235276  0.88021462  0.93526515     0.03430
C1028       C  0.63870254  0.85175057  0.93525844    -0.10650
H1029       H  0.61771956  0.75063480  0.88523745     0.09030
H1030       H  0.76124532  0.87989734  0.91906422     0.06560
H1031       H  0.61710516  0.86453830  0.95053835     0.06410
C1032       C  0.89094114  0.69310658  0.91538749     0.03440
C1033       C  0.86402002  0.65182944  0.93806827    -0.12710
C1034       C  0.81046985  0.62232907  0.93719928     0.00940
C1035       C  0.78303961  0.64154161  0.91886368    -0.11230
C1036       C  0.81033054  0.68765170  0.89946929     0.03430
C1037       C  0.86344556  0.71011224  0.89585932    -0.10650
H1038       H  0.88501741  0.64153923  0.95588437     0.09030
H1039       H  0.74153341  0.62117978  0.91970265     0.06560
H1040       H  0.88345692  0.74112520  0.87733448     0.06410
O1041       O  0.55469585  0.74163433  0.63400662    -0.71470
O1042       O  0.94872612  0.68936820  0.70315806    -0.71680
O1043       O  0.94975888  0.68789933  0.63327555    -0.71540
O1044       O  0.55358963  0.73934374  0.70389296    -0.71550
O1045       O  0.55570449  0.81180784  0.70326012    -0.71510
O1046       O  0.94976158  0.75932091  0.63426223    -0.71530
O1047       O  0.95075879  0.76178577  0.70413347    -0.71470
O1048       O  0.55465853  0.81303833  0.63336725    -0.71660
V1049       V  0.00170506  0.71596520  0.66858595     1.35240
V1050       V  0.50272961  0.78509650  0.66875755     1.35170
C1051       C  0.57479619  0.78753228  0.62341886     0.77770
C1052       C  0.92950720  0.71579306  0.71383792     0.77830
C1053       C  0.92959078  0.71336138  0.62357179     0.77700
C1054       C  0.57477018  0.78532343  0.71381904     0.77660
C1055       C  0.80555905  0.69401595  0.58651135     0.03440
C1056       C  0.78765902  0.64939061  0.56672772    -0.12710
C1057       C  0.81223696  0.62091168  0.56768016     0.00940
C1058       C  0.86004091  0.64170511  0.58538534    -0.11230
C1059       C  0.88086712  0.68941991  0.60314586     0.03430
C1060       C  0.85198070  0.71357542  0.60457618    -0.10650
H1061       H  0.75403140  0.63667785  0.55047736     0.09030
H1062       H  0.88067227  0.62122330  0.58527350     0.06560
H1063       H  0.86534743  0.74772399  0.62049041     0.06410
C1064       C  0.69862289  0.80671965  0.58544935     0.03440
C1065       C  0.65277048  0.78780827  0.60431731    -0.12710
C1066       C  0.62333277  0.81133270  0.60271824     0.00940
C1067       C  0.64342702  0.85836610  0.58445009    -0.11230
C1068       C  0.69077793  0.87876127  0.56613221     0.03430
C1069       C  0.71539937  0.85030686  0.56486415    -0.10650
H1070       H  0.64017352  0.75463771  0.62096811     0.09030
H1071       H  0.62261893  0.87867131  0.58446537     0.06560
H1072       H  0.74834549  0.86249258  0.54794373     0.06410
O1073       O  0.69022616  0.74072165  0.87071513    -0.71470
O1074       O  0.74169426  0.68870240  0.80041734    -0.71680
O1075       O  0.73967684  0.68656779  0.87022913    -0.71540
O1076       O  0.68795974  0.73884873  0.80093207    -0.71550
O1077       O  0.75977579  0.81135584  0.80187317    -0.71510
O1078       O  0.81270222  0.75787117  0.86942417    -0.71530
O1079       O  0.81353221  0.76116137  0.79968289    -0.71470
O1080       O  0.76314137  0.81208986  0.87158605    -0.71660
V1081       V  0.71630808  0.71512115  0.83556316     1.35240
V1082       V  0.78588835  0.78421218  0.83563233     1.35170
C1083       C  0.71703358  0.78665629  0.88145288     0.77770
C1084       C  0.78780544  0.71521671  0.78973154     0.77830
C1085       C  0.78592231  0.71180536  0.87971889     0.77700
C1086       C  0.71347844  0.78498314  0.79159148     0.77660
C1087       C  0.80473374  0.61074895  0.75079779     0.03440
C1088       C  0.85139059  0.63775444  0.73300099    -0.12710
C1089       C  0.88055111  0.69114103  0.73416705     0.00940
C1090       C  0.85980640  0.71815666  0.75163212    -0.11230
C1091       C  0.81160841  0.69080354  0.76911659     0.03430
C1092       C  0.78651514  0.63741523  0.76996565    -0.10650
H1093       H  0.86474989  0.61665615  0.71760758     0.09030
H1094       H  0.88079397  0.75954591  0.75173606     0.06560
H1095       H  0.75240006  0.61610925  0.78586180     0.06410
C1096       C  0.69785726  0.89004935  0.75340674     0.03440
C1097       C  0.65299700  0.86306567  0.73351358    -0.12710
C1098       C  0.62316090  0.80972265  0.73465594     0.00940
C1099       C  0.64269689  0.78243278  0.75280847    -0.11230
C1100       C  0.68948032  0.80957686  0.77180079     0.03430
C1101       C  0.71341044  0.86280142  0.77426768    -0.10650
H1102       H  0.64130971  0.88391256  0.71656307     0.09030
H1103       H  0.62197618  0.74105030  0.75219150     0.06560
H1104       H  0.74497325  0.88328722  0.79228005     0.06410
C1105       C  0.69869957  0.97172933  0.75115808    -0.05470
C1106       C  0.72710093  0.94678793  0.75282668     0.00460
C1107       C  0.78166387  0.97665070  0.75251376    -0.08110
C1108       C  0.80468901  0.52978181  0.75457011    -0.05490
C1109       C  0.77630834  0.55428438  0.75044907     0.00450
C1110       C  0.72237992  0.52444965  0.74629264    -0.08020
C1111       C  0.68867152  0.54563363  0.73487536     0.62360
H1112       H  0.65718101  0.94961526  0.75191932     0.13050
H1113       H  0.84586628  0.55260526  0.75812852     0.13060
C1114       C  0.81722800  0.95517787  0.74846819     0.62590
F1115       F  0.64967578  0.51087429  0.71315722    -0.22580
F1116       F  0.71591510  0.59039270  0.71588162    -0.19900
F1117       F  0.66669112  0.55419151  0.76413128    -0.19580
F1118       F  0.79480959  0.91055483  0.72884730    -0.19630
F1119       F  0.83095659  0.94654766  0.78132094    -0.19960
F1120       F  0.86171877  0.98962710  0.73092936    -0.22630
C1121       C  0.80536342  0.77523083  0.58533387    -0.05470
C1122       C  0.77692926  0.72164070  0.58749983     0.00460
C1123       C  0.72273763  0.69657409  0.59066959    -0.08110
C1124       C  0.69923337  0.72566443  0.58666906    -0.05490
C1125       C  0.72765487  0.77941540  0.58660807     0.00450
C1126       C  0.78208089  0.80474371  0.58828928    -0.08020
C1127       C  0.81714701  0.86176384  0.59486315     0.62360
H1128       H  0.84671788  0.79462378  0.58271668     0.13050
H1129       H  0.65776705  0.70586992  0.58510365     0.13060
C1130       C  0.68834320  0.64041590  0.60002328     0.62590
F1131       F  0.85905259  0.87041370  0.61484473    -0.22580
F1132       F  0.79261473  0.88246548  0.61343858    -0.19900
F1133       F  0.83503789  0.88690287  0.56310099    -0.19580
F1134       F  0.71443495  0.62167046  0.61864790    -0.19630
F1135       F  0.66786271  0.61192949  0.56964898    -0.19960
F1136       F  0.64822110  0.63406909  0.62125999    -0.22630
C1137       C  0.52964859  0.72540573  0.92112373    -0.05470
C1138       C  0.55574267  0.77818234  0.91490744     0.00460
C1139       C  0.52778809  0.80205653  0.90542709    -0.08110
C1140       C  0.97441047  0.77355616  0.90806151    -0.05490
C1141       C  0.94785449  0.72021527  0.91317689     0.00450
C1142       C  0.97661448  0.69520673  0.91678062    -0.08020
C1143       C  0.95466751  0.63774278  0.91415824     0.62360
H1144       H  0.55134226  0.70700929  0.92742399     0.13050
H1145       H  0.95355171  0.79359965  0.90566733     0.13060
C1146       C  0.55272160  0.85590906  0.89046476     0.62590
F1147       F  0.98806415  0.62779411  0.89552243    -0.22580
F1148       F  0.90840941  0.61318156  0.89640783    -0.19900
F1149       F  0.94873256  0.61738712  0.94756704    -0.19580
F1150       F  0.59388274  0.86583995  0.86907242    -0.19630
F1151       F  0.56904508  0.89150167  0.91739117    -0.19960
F1152       F  0.51827616  0.86176252  0.86997033    -0.22630
loop_ 
_geom_bond_atom_site_label_1 
_geom_bond_atom_site_label_2 
_geom_bond_distance 
_geom_bond_site_symmetry_2 
_ccdc_geom_bond_type 
O1            V9   1.902       .  S
O1           C11   1.271       .  A
O2          V441   1.903       .  S
O2           C12   1.271       .  A
O3          V297   1.907       .  S
O3           C13   1.261       .  A
O4          V153   1.905       .  S
O4           C14   1.261       .  A
O5          V298   1.903   1_545  S
O5           C14   1.271       .  A
O6          V154   1.903       .  S
O6           C13   1.272       .  A
O7           V10   1.905       .  S
O7           C12   1.261       .  A
O8          V442   1.906   1_545  S
O8           C11   1.261       .  A
V9          O434   1.903   1_545  S
V9          O291   1.907   1_545  S
V9          O148   1.905       .  S
V9          V442   2.085   1_545  T
V10         O293   1.903       .  S
V10         O150   1.903   1_554  S
V10         O440   1.906   1_554  S
V10         V441   2.085       .  T
C11          C26   1.487       .  S
C12          C60   1.487       .  S
C13          C19   1.489       .  S
C14          C49   1.487       .  S
C15         C130   1.472       .  S
C15          C16   1.391       .  A
C15          C20   1.390       .  A
C16          C17   1.397       .  A
C16          H21   1.084       .  S
C17          C75   1.487       .  S
C17          C18   1.423       .  A
C18          C19   1.423       .  A
C18          H22   1.083       .  S
C19          C20   1.399       .  A
C20          H23   1.081       .  S
C24         C133   1.487       .  S
C24          C25   1.394       .  A
C24          C29   1.398       .  A
C25          C26   1.398       .  A
C25          H30   1.080       .  S
C26          C27   1.419       .  A
C27          C28   1.419       .  A
C27          H31   1.083       .  S
C28          C77   1.485       .  S
C28          C29   1.398       .  A
C29          H32   1.082       .  S
O33         V617   1.904       .  S
O33          C43   1.271       .  A
O34          V41   1.904       .  S
O34          C44   1.272       .  A
O35          V41   1.907       .  S
O35          C45   1.261       .  A
O36         V617   1.907       .  S
O36          C46   1.261       .  A
O37          V42   1.904       .  S
O37          C46   1.272       .  A
O38         V618   1.904       .  S
O38          C45   1.271       .  A
O39         V618   1.908       .  S
O39          C44   1.261       .  A
O40          V42   1.906       .  S
O40          C43   1.261       .  A
V41         O609   1.904       .  S
V41         O612   1.907       .  S
V41         V618   2.084       .  T
V42         O614   1.904   1_455  S
V42         O615   1.908   1_455  S
V42         V617   2.084       .  T
C43          C58   1.489       .  S
C44          C81   1.490       .  S
C45          C51   1.489       .  S
C46          C90   1.490       .  S
C47         C114   1.482       .  S
C47          C48   1.393       .  A
C47          C52   1.397       .  A
C48          C49   1.399       .  A
C48          H53   1.081       .  S
C49          C50   1.421       .  A
C50          C51   1.420       .  A
C50          H54   1.083       .  S
C51          C52   1.399       .  A
C52          H55   1.083       .  S
C56         C117   1.485       .  S
C56          C57   1.398       .  A
C56          C61   1.394       .  A
C57          C58   1.399       .  A
C57          H62   1.083       .  S
C58          C59   1.419       .  A
C59          C60   1.420       .  A
C59          H63   1.083       .  S
C60          C61   1.400       .  A
C61          H64   1.080       .  S
O65          V73   1.901       .  S
O65          C75   1.272       .  A
O66          V73   1.904       .  S
O66          C76   1.272       .  A
O67          V73   1.903       .  S
O67          C77   1.260       .  A
O68          V73   1.905       .  S
O68          C78   1.260       .  A
O69          V74   1.904       .  S
O69          C78   1.272       .  A
O70          V74   1.902       .  S
O70          C77   1.272       .  A
O71          V74   1.906       .  S
O71          C76   1.261       .  A
O72          V74   1.905       .  S
O72          C75   1.260       .  A
V73          V74   2.085       .  T
C76          C83   1.489       .  S
C78          C92   1.487       .  S
C79         C101   1.477       .  S
C79          C80   1.394       .  A
C79          C84   1.391       .  A
C80          C81   1.398       .  A
C80          H85   1.084       .  S
C81          C82   1.423       .  A
C82          C83   1.423       .  A
C82          H86   1.083       .  S
C83          C84   1.399       .  A
C84          H87   1.081       .  S
C88          C98   1.484       .  S
C88          C89   1.398       .  A
C88          C93   1.392       .  A
C89          C90   1.398       .  A
C89          H94   1.083       .  S
C90          C91   1.420       .  A
C91          C92   1.421       .  A
C91          H95   1.083       .  S
C92          C93   1.399       .  A
C93          H96   1.079       .  S
C97          C98   1.407       .  A
C97         C390   1.395       .  A
C97         H104   1.083       .  S
C98          C99   1.424       .  A
C99         C388   1.397       .  A
C99         C106   1.523       .  S
C100        C101   1.403       .  A
C100        C387   1.397   1_545  A
C100        H105   1.084       .  S
C101        C102   1.417       .  A
C102        C385   1.395   1_545  A
C102        C103   1.522       .  S
C103        F107   1.385       .  S
C103        F108   1.383       .  S
C103        F109   1.382       .  S
C106        F110   1.382       .  S
C106        F111   1.383       .  S
C106        F112   1.385       .  S
C113        C114   1.405       .  A
C113        C118   1.398       .  A
C113        H120   1.084       .  S
C114        C115   1.420       .  A
C115        C116   1.397       .  A
C115        C122   1.522       .  S
C116        C117   1.406       .  A
C116        H121   1.083       .  S
C117        C118   1.422       .  A
C118        C119   1.522       .  S
C119        F123   1.385       .  S
C119        F124   1.383       .  S
C119        F125   1.383       .  S
C122        F126   1.383       .  S
C122        F127   1.383       .  S
C122        F128   1.385       .  S
C129        C130   1.402       .  A
C129        C710   1.396   1_455  A
C129        H136   1.085       .  S
C130        C131   1.414       .  A
C131        C708   1.396   1_455  A
C131        C138   1.523       .  S
C132        C133   1.410       .  A
C132        C707   1.396       .  A
C132        H137   1.081       .  S
C133        C134   1.424       .  A
C134        C705   1.396       .  A
C134        C135   1.523       .  S
C135        F139   1.385       .  S
C135        F140   1.382       .  S
C135        F141   1.383       .  S
C138        F142   1.384       .  S
C138        F143   1.381       .  S
C138        F144   1.385       .  S
O145        V153   1.902   1_556  S
O145        C155   1.271       .  A
O146        V297   1.903       .  S
O146        C156   1.271       .  A
O147        V441   1.907   1_556  S
O147        C157   1.261       .  A
O148        C158   1.261       .  A
O149        V442   1.903   1_545  S
O149        C158   1.271       .  A
O150        C157   1.272       .  A
O151        V154   1.905       .  S
O151        C156   1.261       .  A
O152        V298   1.906   1_546  S
O152        C155   1.261       .  A
V153        O290   1.903   1_545  S
V153        O435   1.907   1_544  S
V153        V298   2.085   1_545  T
V154        O437   1.903       .  S
V154        O296   1.906       .  S
V154        V297   2.085       .  T
C155        C170   1.487       .  S
C156        C204   1.487       .  S
C157        C163   1.489       .  S
C158        C193   1.487       .  S
C159        C274   1.472       .  S
C159        C160   1.391       .  A
C159        C164   1.390       .  A
C160        C161   1.397       .  A
C160        H165   1.084       .  S
C161        C219   1.487       .  S
C161        C162   1.423       .  A
C162        C163   1.423       .  A
C162        H166   1.083       .  S
C163        C164   1.399       .  A
C164        H167   1.081       .  S
C168        C277   1.487       .  S
C168        C169   1.394       .  A
C168        C173   1.398       .  A
C169        C170   1.398       .  A
C169        H174   1.080       .  S
C170        C171   1.419       .  A
C171        C172   1.419       .  A
C171        H175   1.083       .  S
C172        C221   1.485       .  S
C172        C173   1.398       .  A
C173        H176   1.082       .  S
O177        V761   1.904       .  S
O177        C187   1.271       .  A
O178        V185   1.904       .  S
O178        C188   1.272       .  A
O179        V185   1.907       .  S
O179        C189   1.261       .  A
O180        V761   1.907       .  S
O180        C190   1.261       .  A
O181        V186   1.904       .  S
O181        C190   1.272       .  A
O182        V762   1.904       .  S
O182        C189   1.271       .  A
O183        V762   1.908       .  S
O183        C188   1.261       .  A
O184        V186   1.906       .  S
O184        C187   1.261       .  A
V185        O753   1.904       .  S
V185        O756   1.907       .  S
V185        V762   2.084       .  T
V186        O758   1.904   1_455  S
V186        O759   1.908   1_455  S
V186        V761   2.084       .  T
C187        C202   1.489       .  S
C188        C225   1.490       .  S
C189        C195   1.489       .  S
C190        C234   1.490       .  S
C191        C258   1.482       .  S
C191        C192   1.393       .  A
C191        C196   1.397       .  A
C192        C193   1.399       .  A
C192        H197   1.081       .  S
C193        C194   1.421       .  A
C194        C195   1.420       .  A
C194        H198   1.083       .  S
C195        C196   1.399       .  A
C196        H199   1.083       .  S
C200        C261   1.485       .  S
C200        C201   1.398       .  A
C200        C205   1.394       .  A
C201        C202   1.399       .  A
C201        H206   1.083       .  S
C202        C203   1.419       .  A
C203        C204   1.420       .  A
C203        H207   1.083       .  S
C204        C205   1.400       .  A
C205        H208   1.080       .  S
O209        V217   1.901       .  S
O209        C219   1.272       .  A
O210        V217   1.904       .  S
O210        C220   1.272       .  A
O211        V217   1.903       .  S
O211        C221   1.260       .  A
O212        V217   1.905       .  S
O212        C222   1.260       .  A
O213        V218   1.904       .  S
O213        C222   1.272       .  A
O214        V218   1.902       .  S
O214        C221   1.272       .  A
O215        V218   1.906       .  S
O215        C220   1.261       .  A
O216        V218   1.905       .  S
O216        C219   1.260       .  A
V217        V218   2.085       .  T
C220        C227   1.489       .  S
C222        C236   1.487       .  S
C223        C245   1.477       .  S
C223        C224   1.394       .  A
C223        C228   1.391       .  A
C224        C225   1.398       .  A
C224        H229   1.084       .  S
C225        C226   1.423       .  A
C226        C227   1.423       .  A
C226        H230   1.083       .  S
C227        C228   1.399       .  A
C228        H231   1.081       .  S
C232        C242   1.484       .  S
C232        C233   1.398       .  A
C232        C237   1.392       .  A
C233        C234   1.398       .  A
C233        H238   1.083       .  S
C234        C235   1.420       .  A
C235        C236   1.421       .  A
C235        H239   1.083       .  S
C236        C237   1.399       .  A
C237        H240   1.079       .  S
C241        C242   1.407       .  A
C241        C534   1.395       .  A
C241        H248   1.083       .  S
C242        C243   1.424       .  A
C243        C532   1.397       .  A
C243        C250   1.523       .  S
C244        C531   1.397   1_545  A
C244        C245   1.403       .  A
C244        H249   1.084       .  S
C245        C246   1.417       .  A
C246        C529   1.395   1_545  A
C246        C247   1.522       .  S
C247        F251   1.385       .  S
C247        F252   1.383       .  S
C247        F253   1.382       .  S
C250        F254   1.382       .  S
C250        F255   1.383       .  S
C250        F256   1.385       .  S
C257        C258   1.405       .  A
C257        C262   1.398       .  A
C257        H264   1.084       .  S
C258        C259   1.420       .  A
C259        C260   1.397       .  A
C259        C266   1.522       .  S
C260        C261   1.406       .  A
C260        H265   1.083       .  S
C261        C262   1.422       .  A
C262        C263   1.522       .  S
C263        F267   1.385       .  S
C263        F268   1.383       .  S
C263        F269   1.383       .  S
C266        F270   1.383       .  S
C266        F271   1.383       .  S
C266        F272   1.385       .  S
C273        C274   1.402       .  A
C273        C854   1.396   1_455  A
C273        H280   1.085       .  S
C274        C275   1.414       .  A
C275        C852   1.396   1_455  A
C275        C282   1.523       .  S
C276        C851   1.396       .  A
C276        C277   1.410       .  A
C276        H281   1.081       .  S
C277        C278   1.424       .  A
C278        C849   1.396       .  A
C278        C279   1.523       .  S
C279        F283   1.385       .  S
C279        F284   1.382       .  S
C279        F285   1.383       .  S
C282        F286   1.384       .  S
C282        F287   1.381       .  S
C282        F288   1.385       .  S
O289        V297   1.902       .  S
O289        C299   1.271       .  A
O290        C300   1.271       .  A
O291        C301   1.261       .  A
O292        V441   1.905       .  S
O292        C302   1.261       .  A
O293        C302   1.271       .  A
O294        V442   1.903       .  S
O294        C301   1.272       .  A
O295        V298   1.905       .  S
O295        C300   1.261       .  A
O296        C299   1.261       .  A
V297        O436   1.905       .  S
V298        O438   1.903   1_554  S
C299        C314   1.487       .  S
C300        C348   1.487       .  S
C301        C307   1.489       .  S
C302        C337   1.487       .  S
C303        C418   1.472       .  S
C303        C304   1.391       .  A
C303        C308   1.390       .  A
C304        C305   1.397       .  A
C304        H309   1.084       .  S
C305        C363   1.487       .  S
C305        C306   1.423       .  A
C306        C307   1.423       .  A
C306        H310   1.083       .  S
C307        C308   1.399       .  A
C308        H311   1.081       .  S
C312        C421   1.487       .  S
C312        C313   1.394       .  A
C312        C317   1.398       .  A
C313        C314   1.398       .  A
C313        H318   1.080       .  S
C314        C315   1.419       .  A
C315        C316   1.419       .  A
C315        H319   1.083       .  S
C316        C365   1.485       .  S
C316        C317   1.398       .  A
C317        H320   1.082       .  S
O321        V905   1.904       .  S
O321        C331   1.271       .  A
O322        V329   1.904       .  S
O322        C332   1.272       .  A
O323        V329   1.907       .  S
O323        C333   1.261       .  A
O324        V905   1.907       .  S
O324        C334   1.261       .  A
O325        V330   1.904       .  S
O325        C334   1.272       .  A
O326        V906   1.904       .  S
O326        C333   1.271       .  A
O327        V906   1.908       .  S
O327        C332   1.261       .  A
O328        V330   1.906       .  S
O328        C331   1.261       .  A
V329        O897   1.904       .  S
V329        O900   1.907       .  S
V329        V906   2.084       .  T
V330        O902   1.904   1_455  S
V330        O903   1.908   1_455  S
V330        V905   2.084       .  T
C331        C346   1.489       .  S
C332        C369   1.490       .  S
C333        C339   1.489       .  S
C334        C378   1.490       .  S
C335        C402   1.482       .  S
C335        C336   1.393       .  A
C335        C340   1.397       .  A
C336        C337   1.399       .  A
C336        H341   1.081       .  S
C337        C338   1.421       .  A
C338        C339   1.420       .  A
C338        H342   1.083       .  S
C339        C340   1.399       .  A
C340        H343   1.083       .  S
C344        C405   1.485       .  S
C344        C345   1.398       .  A
C344        C349   1.394       .  A
C345        C346   1.399       .  A
C345        H350   1.083       .  S
C346        C347   1.419       .  A
C347        C348   1.420       .  A
C347        H351   1.083       .  S
C348        C349   1.400       .  A
C349        H352   1.080       .  S
O353        V361   1.901       .  S
O353        C363   1.272       .  A
O354        V361   1.904       .  S
O354        C364   1.272       .  A
O355        V361   1.903       .  S
O355        C365   1.260       .  A
O356        V361   1.905       .  S
O356        C366   1.260       .  A
O357        V362   1.904       .  S
O357        C366   1.272       .  A
O358        V362   1.902       .  S
O358        C365   1.272       .  A
O359        V362   1.906       .  S
O359        C364   1.261       .  A
O360        V362   1.905       .  S
O360        C363   1.260       .  A
V361        V362   2.085       .  T
C364        C371   1.489       .  S
C366        C380   1.487       .  S
C367        C389   1.477       .  S
C367        C368   1.394       .  A
C367        C372   1.391       .  A
C368        C369   1.398       .  A
C368        H373   1.084       .  S
C369        C370   1.423       .  A
C370        C371   1.423       .  A
C370        H374   1.083       .  S
C371        C372   1.399       .  A
C372        H375   1.081       .  S
C376        C386   1.484       .  S
C376        C377   1.398       .  A
C376        C381   1.392       .  A
C377        C378   1.398       .  A
C377        H382   1.083       .  S
C378        C379   1.420       .  A
C379        C380   1.421       .  A
C379        H383   1.083       .  S
C380        C381   1.399       .  A
C381        H384   1.079       .  S
C385        C386   1.407       .  A
C385        H392   1.083       .  S
C386        C387   1.424       .  A
C387        C394   1.523       .  S
C388        C389   1.403       .  A
C388        H393   1.084       .  S
C389        C390   1.417       .  A
C390        C391   1.522       .  S
C391        F395   1.385       .  S
C391        F396   1.383       .  S
C391        F397   1.382       .  S
C394        F398   1.382       .  S
C394        F399   1.383       .  S
C394        F400   1.385       .  S
C401        C402   1.405       .  A
C401        C406   1.398       .  A
C401        H408   1.084       .  S
C402        C403   1.420       .  A
C403        C404   1.397       .  A
C403        C410   1.522       .  S
C404        C405   1.406       .  A
C404        H409   1.083       .  S
C405        C406   1.422       .  A
C406        C407   1.522       .  S
C407        F411   1.385       .  S
C407        F412   1.383       .  S
C407        F413   1.383       .  S
C410        F414   1.383       .  S
C410        F415   1.383       .  S
C410        F416   1.385       .  S
C417        C418   1.402       .  A
C417        C998   1.396   1_455  A
C417        H424   1.085       .  S
C418        C419   1.414       .  A
C419        C996   1.396   1_455  A
C419        C426   1.523       .  S
C420        C995   1.396       .  A
C420        C421   1.410       .  A
C420        H425   1.081       .  S
C421        C422   1.424       .  A
C422        C993   1.396       .  A
C422        C423   1.523       .  S
C423        F427   1.385       .  S
C423        F428   1.382       .  S
C423        F429   1.383       .  S
C426        F430   1.384       .  S
C426        F431   1.381       .  S
C426        F432   1.385       .  S
O433        V441   1.902   1_556  S
O433        C443   1.271       .  A
O434        C444   1.271       .  A
O435        C445   1.261       .  A
O436        C446   1.261       .  A
O437        C446   1.271       .  A
O438        C445   1.272       .  A
O439        V442   1.905       .  S
O439        C444   1.261       .  A
O440        C443   1.261       .  A
C443        C458   1.487       .  S
C444        C492   1.487       .  S
C445        C451   1.489       .  S
C446        C481   1.487       .  S
C447        C562   1.472       .  S
C447        C448   1.391       .  A
C447        C452   1.390       .  A
C448        C449   1.397       .  A
C448        H453   1.084       .  S
C449        C507   1.487       .  S
C449        C450   1.423       .  A
C450        C451   1.423       .  A
C450        H454   1.083       .  S
C451        C452   1.399       .  A
C452        H455   1.081       .  S
C456        C565   1.487       .  S
C456        C457   1.394       .  A
C456        C461   1.398       .  A
C457        C458   1.398       .  A
C457        H462   1.080       .  S
C458        C459   1.419       .  A
C459        C460   1.419       .  A
C459        H463   1.083       .  S
C460        C509   1.485       .  S
C460        C461   1.398       .  A
C461        H464   1.082       .  S
O465       V1049   1.904       .  S
O465        C475   1.271       .  A
O466        V473   1.904       .  S
O466        C476   1.272       .  A
O467        V473   1.907       .  S
O467        C477   1.261       .  A
O468       V1049   1.907       .  S
O468        C478   1.261       .  A
O469        V474   1.904       .  S
O469        C478   1.272       .  A
O470       V1050   1.904       .  S
O470        C477   1.271       .  A
O471       V1050   1.908       .  S
O471        C476   1.261       .  A
O472        V474   1.906       .  S
O472        C475   1.261       .  A
V473       O1041   1.904       .  S
V473       O1044   1.907       .  S
V473       V1050   2.084       .  T
V474       O1046   1.904   1_455  S
V474       O1047   1.908   1_455  S
V474       V1049   2.084       .  T
C475        C490   1.489       .  S
C476        C513   1.490       .  S
C477        C483   1.489       .  S
C478        C522   1.490       .  S
C479        C546   1.482       .  S
C479        C480   1.393       .  A
C479        C484   1.397       .  A
C480        C481   1.399       .  A
C480        H485   1.081       .  S
C481        C482   1.421       .  A
C482        C483   1.420       .  A
C482        H486   1.083       .  S
C483        C484   1.399       .  A
C484        H487   1.083       .  S
C488        C549   1.485       .  S
C488        C489   1.398       .  A
C488        C493   1.394       .  A
C489        C490   1.399       .  A
C489        H494   1.083       .  S
C490        C491   1.419       .  A
C491        C492   1.420       .  A
C491        H495   1.083       .  S
C492        C493   1.400       .  A
C493        H496   1.080       .  S
O497        V505   1.901       .  S
O497        C507   1.272       .  A
O498        V505   1.904       .  S
O498        C508   1.272       .  A
O499        V505   1.903       .  S
O499        C509   1.260       .  A
O500        V505   1.905       .  S
O500        C510   1.260       .  A
O501        V506   1.904       .  S
O501        C510   1.272       .  A
O502        V506   1.902       .  S
O502        C509   1.272       .  A
O503        V506   1.906       .  S
O503        C508   1.261       .  A
O504        V506   1.905       .  S
O504        C507   1.260       .  A
V505        V506   2.085       .  T
C508        C515   1.489       .  S
C510        C524   1.487       .  S
C511        C533   1.477       .  S
C511        C512   1.394       .  A
C511        C516   1.391       .  A
C512        C513   1.398       .  A
C512        H517   1.084       .  S
C513        C514   1.423       .  A
C514        C515   1.423       .  A
C514        H518   1.083       .  S
C515        C516   1.399       .  A
C516        H519   1.081       .  S
C520        C530   1.484       .  S
C520        C521   1.398       .  A
C520        C525   1.392       .  A
C521        C522   1.398       .  A
C521        H526   1.083       .  S
C522        C523   1.420       .  A
C523        C524   1.421       .  A
C523        H527   1.083       .  S
C524        C525   1.399       .  A
C525        H528   1.079       .  S
C529        C530   1.407       .  A
C529        H536   1.083       .  S
C530        C531   1.424       .  A
C531        C538   1.523       .  S
C532        C533   1.403       .  A
C532        H537   1.084       .  S
C533        C534   1.417       .  A
C534        C535   1.522       .  S
C535        F539   1.385       .  S
C535        F540   1.383       .  S
C535        F541   1.382       .  S
C538        F542   1.382       .  S
C538        F543   1.383       .  S
C538        F544   1.385       .  S
C545        C546   1.405       .  A
C545        C550   1.398       .  A
C545        H552   1.084       .  S
C546        C547   1.420       .  A
C547        C548   1.397       .  A
C547        C554   1.522       .  S
C548        C549   1.406       .  A
C548        H553   1.083       .  S
C549        C550   1.422       .  A
C550        C551   1.522       .  S
C551        F555   1.385       .  S
C551        F556   1.383       .  S
C551        F557   1.383       .  S
C554        F558   1.383       .  S
C554        F559   1.383       .  S
C554        F560   1.385       .  S
C561        C562   1.402       .  A
C561       C1142   1.396   1_455  A
C561        H568   1.085       .  S
C562        C563   1.414       .  A
C563       C1140   1.396   1_455  A
C563        C570   1.523       .  S
C564       C1139   1.396       .  A
C564        C565   1.410       .  A
C564        H569   1.081       .  S
C565        C566   1.424       .  A
C566       C1137   1.396       .  A
C566        C567   1.523       .  S
C567        F571   1.385       .  S
C567        F572   1.382       .  S
C567        F573   1.383       .  S
C570        F574   1.384       .  S
C570        F575   1.381       .  S
C570        F576   1.385       .  S
O577        V585   1.902       .  S
O577        C587   1.271       .  A
O578       V1017   1.903       .  S
O578        C588   1.271       .  A
O579        V873   1.907       .  S
O579        C589   1.261       .  A
O580        V729   1.905       .  S
O580        C590   1.261       .  A
O581        V874   1.903   1_545  S
O581        C590   1.271       .  A
O582        V730   1.903       .  S
O582        C589   1.272       .  A
O583        V586   1.905       .  S
O583        C588   1.261       .  A
O584       V1018   1.906   1_545  S
O584        C587   1.261       .  A
V585       O1010   1.903   1_545  S
V585        O867   1.907   1_545  S
V585        O724   1.905       .  S
V585       V1018   2.085   1_545  T
V586        O869   1.903       .  S
V586        O726   1.903   1_554  S
V586       O1016   1.906   1_554  S
V586       V1017   2.085       .  T
C587        C602   1.487       .  S
C588        C636   1.487       .  S
C589        C595   1.489       .  S
C590        C625   1.487       .  S
C591        C706   1.472       .  S
C591        C592   1.391       .  A
C591        C596   1.390       .  A
C592        C593   1.397       .  A
C592        H597   1.084       .  S
C593        C651   1.487       .  S
C593        C594   1.423       .  A
C594        C595   1.423       .  A
C594        H598   1.083       .  S
C595        C596   1.399       .  A
C596        H599   1.081       .  S
C600        C709   1.487       .  S
C600        C601   1.394       .  A
C600        C605   1.398       .  A
C601        C602   1.398       .  A
C601        H606   1.080       .  S
C602        C603   1.419       .  A
C603        C604   1.419       .  A
C603        H607   1.083       .  S
C604        C653   1.485       .  S
C604        C605   1.398       .  A
C605        H608   1.082       .  S
O609        C619   1.271       .  A
O610        V617   1.904   1_655  S
O610        C620   1.272       .  A
O611        V617   1.907   1_655  S
O611        C621   1.261       .  A
O612        C622   1.261       .  A
O613        V618   1.904       .  S
O613        C622   1.272       .  A
O614        C621   1.271       .  A
O615        C620   1.261       .  A
O616        V618   1.906       .  S
O616        C619   1.261       .  A
C619        C634   1.489       .  S
C620        C657   1.490       .  S
C621        C627   1.489       .  S
C622        C666   1.490       .  S
C623        C690   1.482       .  S
C623        C624   1.393       .  A
C623        C628   1.397       .  A
C624        C625   1.399       .  A
C624        H629   1.081       .  S
C625        C626   1.421       .  A
C626        C627   1.420       .  A
C626        H630   1.083       .  S
C627        C628   1.399       .  A
C628        H631   1.083       .  S
C632        C693   1.485       .  S
C632        C633   1.398       .  A
C632        C637   1.394       .  A
C633        C634   1.399       .  A
C633        H638   1.083       .  S
C634        C635   1.419       .  A
C635        C636   1.420       .  A
C635        H639   1.083       .  S
C636        C637   1.400       .  A
C637        H640   1.080       .  S
O641        V649   1.901       .  S
O641        C651   1.272       .  A
O642        V649   1.904       .  S
O642        C652   1.272       .  A
O643        V649   1.903       .  S
O643        C653   1.260       .  A
O644        V649   1.905       .  S
O644        C654   1.260       .  A
O645        V650   1.904       .  S
O645        C654   1.272       .  A
O646        V650   1.902       .  S
O646        C653   1.272       .  A
O647        V650   1.906       .  S
O647        C652   1.261       .  A
O648        V650   1.905       .  S
O648        C651   1.260       .  A
V649        V650   2.085       .  T
C652        C659   1.489       .  S
C654        C668   1.487       .  S
C655        C677   1.477       .  S
C655        C656   1.394       .  A
C655        C660   1.391       .  A
C656        C657   1.398       .  A
C656        H661   1.084       .  S
C657        C658   1.423       .  A
C658        C659   1.423       .  A
C658        H662   1.083       .  S
C659        C660   1.399       .  A
C660        H663   1.081       .  S
C664        C674   1.484       .  S
C664        C665   1.398       .  A
C664        C669   1.392       .  A
C665        C666   1.398       .  A
C665        H670   1.083       .  S
C666        C667   1.420       .  A
C667        C668   1.421       .  A
C667        H671   1.083       .  S
C668        C669   1.399       .  A
C669        H672   1.079       .  S
C673        C674   1.407       .  A
C673        C966   1.395       .  A
C673        H680   1.083       .  S
C674        C675   1.424       .  A
C675        C964   1.397       .  A
C675        C682   1.523       .  S
C676        C963   1.397   1_545  A
C676        C677   1.403       .  A
C676        H681   1.084       .  S
C677        C678   1.417       .  A
C678        C961   1.395   1_545  A
C678        C679   1.522       .  S
C679        F683   1.385       .  S
C679        F684   1.383       .  S
C679        F685   1.382       .  S
C682        F686   1.382       .  S
C682        F687   1.383       .  S
C682        F688   1.385       .  S
C689        C690   1.405       .  A
C689        C694   1.398       .  A
C689        H696   1.084       .  S
C690        C691   1.420       .  A
C691        C692   1.397       .  A
C691        C698   1.522       .  S
C692        C693   1.406       .  A
C692        H697   1.083       .  S
C693        C694   1.422       .  A
C694        C695   1.522       .  S
C695        F699   1.385       .  S
C695        F700   1.383       .  S
C695        F701   1.383       .  S
C698        F702   1.383       .  S
C698        F703   1.383       .  S
C698        F704   1.385       .  S
C705        C706   1.402       .  A
C705        H712   1.085       .  S
C706        C707   1.414       .  A
C707        C714   1.523       .  S
C708        C709   1.410       .  A
C708        H713   1.081       .  S
C709        C710   1.424       .  A
C710        C711   1.523       .  S
C711        F715   1.385       .  S
C711        F716   1.382       .  S
C711        F717   1.383       .  S
C714        F718   1.384       .  S
C714        F719   1.381       .  S
C714        F720   1.385       .  S
O721        V729   1.902   1_556  S
O721        C731   1.271       .  A
O722        V873   1.903       .  S
O722        C732   1.271       .  A
O723       V1017   1.907   1_556  S
O723        C733   1.261       .  A
O724        C734   1.261       .  A
O725       V1018   1.903   1_545  S
O725        C734   1.271       .  A
O726        C733   1.272       .  A
O727        V730   1.905       .  S
O727        C732   1.261       .  A
O728        V874   1.906   1_546  S
O728        C731   1.261       .  A
V729        O866   1.903   1_545  S
V729       O1011   1.907   1_544  S
V729        V874   2.085   1_545  T
V730       O1013   1.903       .  S
V730        O872   1.906       .  S
V730        V873   2.085       .  T
C731        C746   1.487       .  S
C732        C780   1.487       .  S
C733        C739   1.489       .  S
C734        C769   1.487       .  S
C735        C850   1.472       .  S
C735        C736   1.391       .  A
C735        C740   1.390       .  A
C736        C737   1.397       .  A
C736        H741   1.084       .  S
C737        C795   1.487       .  S
C737        C738   1.423       .  A
C738        C739   1.423       .  A
C738        H742   1.083       .  S
C739        C740   1.399       .  A
C740        H743   1.081       .  S
C744        C853   1.487       .  S
C744        C745   1.394       .  A
C744        C749   1.398       .  A
C745        C746   1.398       .  A
C745        H750   1.080       .  S
C746        C747   1.419       .  A
C747        C748   1.419       .  A
C747        H751   1.083       .  S
C748        C797   1.485       .  S
C748        C749   1.398       .  A
C749        H752   1.082       .  S
O753        C763   1.271       .  A
O754        V761   1.904   1_655  S
O754        C764   1.272       .  A
O755        V761   1.907   1_655  S
O755        C765   1.261       .  A
O756        C766   1.261       .  A
O757        V762   1.904       .  S
O757        C766   1.272       .  A
O758        C765   1.271       .  A
O759        C764   1.261       .  A
O760        V762   1.906       .  S
O760        C763   1.261       .  A
C763        C778   1.489       .  S
C764        C801   1.490       .  S
C765        C771   1.489       .  S
C766        C810   1.490       .  S
C767        C834   1.482       .  S
C767        C768   1.393       .  A
C767        C772   1.397       .  A
C768        C769   1.399       .  A
C768        H773   1.081       .  S
C769        C770   1.421       .  A
C770        C771   1.420       .  A
C770        H774   1.083       .  S
C771        C772   1.399       .  A
C772        H775   1.083       .  S
C776        C837   1.485       .  S
C776        C777   1.398       .  A
C776        C781   1.394       .  A
C777        C778   1.399       .  A
C777        H782   1.083       .  S
C778        C779   1.419       .  A
C779        C780   1.420       .  A
C779        H783   1.083       .  S
C780        C781   1.400       .  A
C781        H784   1.080       .  S
O785        V793   1.901       .  S
O785        C795   1.272       .  A
O786        V793   1.904       .  S
O786        C796   1.272       .  A
O787        V793   1.903       .  S
O787        C797   1.260       .  A
O788        V793   1.905       .  S
O788        C798   1.260       .  A
O789        V794   1.904       .  S
O789        C798   1.272       .  A
O790        V794   1.902       .  S
O790        C797   1.272       .  A
O791        V794   1.906       .  S
O791        C796   1.261       .  A
O792        V794   1.905       .  S
O792        C795   1.260       .  A
V793        V794   2.085       .  T
C796        C803   1.489       .  S
C798        C812   1.487       .  S
C799        C821   1.477       .  S
C799        C800   1.394       .  A
C799        C804   1.391       .  A
C800        C801   1.398       .  A
C800        H805   1.084       .  S
C801        C802   1.423       .  A
C802        C803   1.423       .  A
C802        H806   1.083       .  S
C803        C804   1.399       .  A
C804        H807   1.081       .  S
C808        C818   1.484       .  S
C808        C809   1.398       .  A
C808        C813   1.392       .  A
C809        C810   1.398       .  A
C809        H814   1.083       .  S
C810        C811   1.420       .  A
C811        C812   1.421       .  A
C811        H815   1.083       .  S
C812        C813   1.399       .  A
C813        H816   1.079       .  S
C817        C818   1.407       .  A
C817       C1110   1.395       .  A
C817        H824   1.083       .  S
C818        C819   1.424       .  A
C819       C1108   1.397       .  A
C819        C826   1.523       .  S
C820       C1107   1.397   1_545  A
C820        C821   1.403       .  A
C820        H825   1.084       .  S
C821        C822   1.417       .  A
C822       C1105   1.395   1_545  A
C822        C823   1.522       .  S
C823        F827   1.385       .  S
C823        F828   1.383       .  S
C823        F829   1.382       .  S
C826        F830   1.382       .  S
C826        F831   1.383       .  S
C826        F832   1.385       .  S
C833        C834   1.405       .  A
C833        C838   1.398       .  A
C833        H840   1.084       .  S
C834        C835   1.420       .  A
C835        C836   1.397       .  A
C835        C842   1.522       .  S
C836        C837   1.406       .  A
C836        H841   1.083       .  S
C837        C838   1.422       .  A
C838        C839   1.522       .  S
C839        F843   1.385       .  S
C839        F844   1.383       .  S
C839        F845   1.383       .  S
C842        F846   1.383       .  S
C842        F847   1.383       .  S
C842        F848   1.385       .  S
C849        C850   1.402       .  A
C849        H856   1.085       .  S
C850        C851   1.414       .  A
C851        C858   1.523       .  S
C852        C853   1.410       .  A
C852        H857   1.081       .  S
C853        C854   1.424       .  A
C854        C855   1.523       .  S
C855        F859   1.385       .  S
C855        F860   1.382       .  S
C855        F861   1.383       .  S
C858        F862   1.384       .  S
C858        F863   1.381       .  S
C858        F864   1.385       .  S
O865        V873   1.902       .  S
O865        C875   1.271       .  A
O866        C876   1.271       .  A
O867        C877   1.261       .  A
O868       V1017   1.905       .  S
O868        C878   1.261       .  A
O869        C878   1.271       .  A
O870       V1018   1.903       .  S
O870        C877   1.272       .  A
O871        V874   1.905       .  S
O871        C876   1.261       .  A
O872        C875   1.261       .  A
V873       O1012   1.905       .  S
V874       O1014   1.903   1_554  S
C875        C890   1.487       .  S
C876        C924   1.487       .  S
C877        C883   1.489       .  S
C878        C913   1.487       .  S
C879        C994   1.472       .  S
C879        C880   1.391       .  A
C879        C884   1.390       .  A
C880        C881   1.397       .  A
C880        H885   1.084       .  S
C881        C939   1.487       .  S
C881        C882   1.423       .  A
C882        C883   1.423       .  A
C882        H886   1.083       .  S
C883        C884   1.399       .  A
C884        H887   1.081       .  S
C888        C997   1.487       .  S
C888        C889   1.394       .  A
C888        C893   1.398       .  A
C889        C890   1.398       .  A
C889        H894   1.080       .  S
C890        C891   1.419       .  A
C891        C892   1.419       .  A
C891        H895   1.083       .  S
C892        C941   1.485       .  S
C892        C893   1.398       .  A
C893        H896   1.082       .  S
O897        C907   1.271       .  A
O898        V905   1.904   1_655  S
O898        C908   1.272       .  A
O899        V905   1.907   1_655  S
O899        C909   1.261       .  A
O900        C910   1.261       .  A
O901        V906   1.904       .  S
O901        C910   1.272       .  A
O902        C909   1.271       .  A
O903        C908   1.261       .  A
O904        V906   1.906       .  S
O904        C907   1.261       .  A
C907        C922   1.489       .  S
C908        C945   1.490       .  S
C909        C915   1.489       .  S
C910        C954   1.490       .  S
C911        C978   1.482       .  S
C911        C912   1.393       .  A
C911        C916   1.397       .  A
C912        C913   1.399       .  A
C912        H917   1.081       .  S
C913        C914   1.421       .  A
C914        C915   1.420       .  A
C914        H918   1.083       .  S
C915        C916   1.399       .  A
C916        H919   1.083       .  S
C920        C981   1.485       .  S
C920        C921   1.398       .  A
C920        C925   1.394       .  A
C921        C922   1.399       .  A
C921        H926   1.083       .  S
C922        C923   1.419       .  A
C923        C924   1.420       .  A
C923        H927   1.083       .  S
C924        C925   1.400       .  A
C925        H928   1.080       .  S
O929        V937   1.901       .  S
O929        C939   1.272       .  A
O930        V937   1.904       .  S
O930        C940   1.272       .  A
O931        V937   1.903       .  S
O931        C941   1.260       .  A
O932        V937   1.905       .  S
O932        C942   1.260       .  A
O933        V938   1.904       .  S
O933        C942   1.272       .  A
O934        V938   1.902       .  S
O934        C941   1.272       .  A
O935        V938   1.906       .  S
O935        C940   1.261       .  A
O936        V938   1.905       .  S
O936        C939   1.260       .  A
V937        V938   2.085       .  T
C940        C947   1.489       .  S
C942        C956   1.487       .  S
C943        C965   1.477       .  S
C943        C944   1.394       .  A
C943        C948   1.391       .  A
C944        C945   1.398       .  A
C944        H949   1.084       .  S
C945        C946   1.423       .  A
C946        C947   1.423       .  A
C946        H950   1.083       .  S
C947        C948   1.399       .  A
C948        H951   1.081       .  S
C952        C962   1.484       .  S
C952        C953   1.398       .  A
C952        C957   1.392       .  A
C953        C954   1.398       .  A
C953        H958   1.083       .  S
C954        C955   1.420       .  A
C955        C956   1.421       .  A
C955        H959   1.083       .  S
C956        C957   1.399       .  A
C957        H960   1.079       .  S
C961        C962   1.407       .  A
C961        H968   1.083       .  S
C962        C963   1.424       .  A
C963        C970   1.523       .  S
C964        C965   1.403       .  A
C964        H969   1.084       .  S
C965        C966   1.417       .  A
C966        C967   1.522       .  S
C967        F971   1.385       .  S
C967        F972   1.383       .  S
C967        F973   1.382       .  S
C970        F974   1.382       .  S
C970        F975   1.383       .  S
C970        F976   1.385       .  S
C977        C978   1.405       .  A
C977        C982   1.398       .  A
C977        H984   1.084       .  S
C978        C979   1.420       .  A
C979        C980   1.397       .  A
C979        C986   1.522       .  S
C980        C981   1.406       .  A
C980        H985   1.083       .  S
C981        C982   1.422       .  A
C982        C983   1.522       .  S
C983        F987   1.385       .  S
C983        F988   1.383       .  S
C983        F989   1.383       .  S
C986        F990   1.383       .  S
C986        F991   1.383       .  S
C986        F992   1.385       .  S
C993        C994   1.402       .  A
C993       H1000   1.085       .  S
C994        C995   1.414       .  A
C995       C1002   1.523       .  S
C996        C997   1.410       .  A
C996       H1001   1.081       .  S
C997        C998   1.424       .  A
C998        C999   1.523       .  S
C999       F1003   1.385       .  S
C999       F1004   1.382       .  S
C999       F1005   1.383       .  S
C1002      F1006   1.384       .  S
C1002      F1007   1.381       .  S
C1002      F1008   1.385       .  S
O1009      V1017   1.902   1_556  S
O1009      C1019   1.271       .  A
O1010      C1020   1.271       .  A
O1011      C1021   1.261       .  A
O1012      C1022   1.261       .  A
O1013      C1022   1.271       .  A
O1014      C1021   1.272       .  A
O1015      V1018   1.905       .  S
O1015      C1020   1.261       .  A
O1016      C1019   1.261       .  A
C1019      C1034   1.487       .  S
C1020      C1068   1.487       .  S
C1021      C1027   1.489       .  S
C1022      C1057   1.487       .  S
C1023      C1138   1.472       .  S
C1023      C1024   1.391       .  A
C1023      C1028   1.390       .  A
C1024      C1025   1.397       .  A
C1024      H1029   1.084       .  S
C1025      C1083   1.487       .  S
C1025      C1026   1.423       .  A
C1026      C1027   1.423       .  A
C1026      H1030   1.083       .  S
C1027      C1028   1.399       .  A
C1028      H1031   1.081       .  S
C1032      C1141   1.487       .  S
C1032      C1033   1.394       .  A
C1032      C1037   1.398       .  A
C1033      C1034   1.398       .  A
C1033      H1038   1.080       .  S
C1034      C1035   1.419       .  A
C1035      C1036   1.419       .  A
C1035      H1039   1.083       .  S
C1036      C1085   1.485       .  S
C1036      C1037   1.398       .  A
C1037      H1040   1.082       .  S
O1041      C1051   1.271       .  A
O1042      V1049   1.904   1_655  S
O1042      C1052   1.272       .  A
O1043      V1049   1.907   1_655  S
O1043      C1053   1.261       .  A
O1044      C1054   1.261       .  A
O1045      V1050   1.904       .  S
O1045      C1054   1.272       .  A
O1046      C1053   1.271       .  A
O1047      C1052   1.261       .  A
O1048      V1050   1.906       .  S
O1048      C1051   1.261       .  A
C1051      C1066   1.489       .  S
C1052      C1089   1.490       .  S
C1053      C1059   1.489       .  S
C1054      C1098   1.490       .  S
C1055      C1122   1.482       .  S
C1055      C1056   1.393       .  A
C1055      C1060   1.397       .  A
C1056      C1057   1.399       .  A
C1056      H1061   1.081       .  S
C1057      C1058   1.421       .  A
C1058      C1059   1.420       .  A
C1058      H1062   1.083       .  S
C1059      C1060   1.399       .  A
C1060      H1063   1.083       .  S
C1064      C1125   1.485       .  S
C1064      C1065   1.398       .  A
C1064      C1069   1.394       .  A
C1065      C1066   1.399       .  A
C1065      H1070   1.083       .  S
C1066      C1067   1.419       .  A
C1067      C1068   1.420       .  A
C1067      H1071   1.083       .  S
C1068      C1069   1.400       .  A
C1069      H1072   1.080       .  S
O1073      V1081   1.901       .  S
O1073      C1083   1.272       .  A
O1074      V1081   1.904       .  S
O1074      C1084   1.272       .  A
O1075      V1081   1.903       .  S
O1075      C1085   1.260       .  A
O1076      V1081   1.905       .  S
O1076      C1086   1.260       .  A
O1077      V1082   1.904       .  S
O1077      C1086   1.272       .  A
O1078      V1082   1.902       .  S
O1078      C1085   1.272       .  A
O1079      V1082   1.906       .  S
O1079      C1084   1.261       .  A
O1080      V1082   1.905       .  S
O1080      C1083   1.260       .  A
V1081      V1082   2.085       .  T
C1084      C1091   1.489       .  S
C1086      C1100   1.487       .  S
C1087      C1109   1.477       .  S
C1087      C1088   1.394       .  A
C1087      C1092   1.391       .  A
C1088      C1089   1.398       .  A
C1088      H1093   1.084       .  S
C1089      C1090   1.423       .  A
C1090      C1091   1.423       .  A
C1090      H1094   1.083       .  S
C1091      C1092   1.399       .  A
C1092      H1095   1.081       .  S
C1096      C1106   1.484       .  S
C1096      C1097   1.398       .  A
C1096      C1101   1.392       .  A
C1097      C1098   1.398       .  A
C1097      H1102   1.083       .  S
C1098      C1099   1.420       .  A
C1099      C1100   1.421       .  A
C1099      H1103   1.083       .  S
C1100      C1101   1.399       .  A
C1101      H1104   1.079       .  S
C1105      C1106   1.407       .  A
C1105      H1112   1.083       .  S
C1106      C1107   1.424       .  A
C1107      C1114   1.523       .  S
C1108      C1109   1.403       .  A
C1108      H1113   1.084       .  S
C1109      C1110   1.417       .  A
C1110      C1111   1.522       .  S
C1111      F1115   1.385       .  S
C1111      F1116   1.383       .  S
C1111      F1117   1.382       .  S
C1114      F1118   1.382       .  S
C1114      F1119   1.383       .  S
C1114      F1120   1.385       .  S
C1121      C1122   1.405       .  A
C1121      C1126   1.398       .  A
C1121      H1128   1.084       .  S
C1122      C1123   1.420       .  A
C1123      C1124   1.397       .  A
C1123      C1130   1.522       .  S
C1124      C1125   1.406       .  A
C1124      H1129   1.083       .  S
C1125      C1126   1.422       .  A
C1126      C1127   1.522       .  S
C1127      F1131   1.385       .  S
C1127      F1132   1.383       .  S
C1127      F1133   1.383       .  S
C1130      F1134   1.383       .  S
C1130      F1135   1.383       .  S
C1130      F1136   1.385       .  S
C1137      C1138   1.402       .  A
C1137      H1144   1.085       .  S
C1138      C1139   1.414       .  A
C1139      C1146   1.523       .  S
C1140      C1141   1.410       .  A
C1140      H1145   1.081       .  S
C1141      C1142   1.424       .  A
C1142      C1143   1.523       .  S
C1143      F1147   1.385       .  S
C1143      F1148   1.382       .  S
C1143      F1149   1.383       .  S
C1146      F1150   1.384       .  S
C1146      F1151   1.381       .  S
C1146      F1152   1.385       .  S
