geometry optimzed in LAMMPS
_audit_creation_date              2020-11-30 
_audit_creation_method            'lammps2cif' 
_symmetry_space_group_name_H-M    'P1' 
_symmetry_Int_Tables_number       1 
_symmetry_cell_setting            triclinic 
loop_ 
_symmetry_equiv_pos_as_xyz 
  x,y,z 
_cell_length_a                    35.29936634 
_cell_length_b                    35.300972091002336 
_cell_length_c                    26.422806251020937 
_cell_angle_alpha                 89.81804730579357 
_cell_angle_beta                  90.17666309233087 
_cell_angle_gamma                 120.08789041239025 
loop_ 
_atom_site_label 
_atom_site_type_symbol 
_atom_site_fract_x 
_atom_site_fract_y 
_atom_site_fract_z 
_atom_site_charge 
O1          O  0.46678627  0.44147954  0.33042226    -0.72500
O2          O  0.08434462  0.02997425  0.33472429    -0.72500
O3          O  0.03608601  0.47895798  0.39932260    -0.72600
O4          O  0.03180844  0.48606223  0.25373955    -0.72600
O5          O  0.49119274  0.02529048  0.26205625    -0.72600
O6          O  0.48684855  0.02297541  0.40618454    -0.72500
O7          O  0.04942801  0.06781909  0.34000751    -0.72500
O8          O  0.42205543  0.46888053  0.32591486    -0.72600
Ni9        Ni  0.03514381  0.48074009  0.32626553     1.25400
Ni10       Ni  0.48790347  0.02526710  0.33414413     1.25400
C11         C  0.42817228  0.43595214  0.32706750     0.89700
C12         C  0.08503426  0.06648488  0.33701007     0.89600
C13         C  0.48705176  0.50864852  0.42923246     0.89600
C14         C  0.01407499  0.50681299  0.23413695     0.89800
O15         O  0.44030023  0.17686847  0.33831688    -0.72500
O16         O  0.08308599  0.28601593  0.32445594    -0.72500
O17         O  0.03623476  0.23357435  0.40211120    -0.72600
O18         O  0.02566619  0.22515981  0.25776743    -0.72600
O19         O  0.47206696  0.26710151  0.25626049    -0.72600
O20         O  0.47234967  0.27373148  0.40125479    -0.72500
O21         O  0.04206519  0.31768983  0.32794710    -0.72500
O22         O  0.41351487  0.22195064  0.33074988    -0.72600
Ni23       Ni  0.03242216  0.22838823  0.32991462     1.25400
Ni24       Ni  0.47139059  0.27222052  0.32856578     1.25400
C25         C  0.40768063  0.18330476  0.33575281     0.89700
C26         C  0.07952777  0.32044405  0.32533181     0.89600
C27         C  0.01634846  0.24949394  0.42685941     0.89600
C28         C  0.00468171  0.24085575  0.23456487     0.89800
O29         O  0.19040682  0.44988148  0.32731706    -0.72500
O30         O  0.27742898  0.06584165  0.34134509    -0.72500
O31         O  0.22884612  0.01384535  0.26469371    -0.72600
O32         O  0.21686630  0.00925401  0.40846915    -0.72600
O33         O  0.29135919  0.48540726  0.39066389    -0.72600
O34         O  0.27768749  0.48002739  0.24594582    -0.72500
O35         O  0.31316995  0.02864468  0.34465022    -0.72500
O36         O  0.23624397  0.42380557  0.32297547    -0.72600
Ni37       Ni  0.22158138  0.01249257  0.33637580     1.25400
Ni38       Ni  0.28615050  0.48176764  0.31810557     1.25400
C39         C  0.19728891  0.41754127  0.32561500     0.89700
C40         C  0.31325560  0.06483510  0.34387372     0.89600
C41         C  0.24856410  0.99631245  0.24295486     0.89600
C42         C  0.23470515  0.99219104  0.43518853     0.89800
O43         O  0.26412867  0.24120126  0.25677408    -0.72500
O44         O  0.25892964  0.25027651  0.39975267    -0.72500
O45         O  0.20888751  0.18997933  0.33025770    -0.72600
O46         O  0.31408065  0.30342781  0.32650546    -0.72600
O47         O  0.27281174  0.33461891  0.31931406    -0.72600
O48         O  0.16938069  0.22263289  0.31829207    -0.72500
O49         O  0.21662849  0.28019645  0.39131496    -0.72500
O50         O  0.22599684  0.27548489  0.24629371    -0.72600
Ni51       Ni  0.26311515  0.24523358  0.32861052     1.25400
Ni52       Ni  0.21989238  0.27949457  0.31838339     1.25400
C53         C  0.24567451  0.25629977  0.22798369     0.89700
C54         C  0.23585187  0.26509959  0.41929098     0.89600
C55         C  0.17175466  0.18806698  0.32516870     0.89600
C56         C  0.31038248  0.33777415  0.32279125     0.89800
O57         O  0.09242890  0.02535990  0.00828012    -0.72500
O58         O  0.49389731  0.04117861  0.00728632    -0.72500
O59         O  0.03626683  0.02197754  0.08006763    -0.72600
O60         O  0.04769761  0.04241439  0.93686249    -0.72600
O61         O  0.50752191  0.48001356  0.92610600    -0.72600
O62         O  0.50719854  0.47210215  0.07066257    -0.72500
O63         O  0.45302667  0.47620573  0.00018513    -0.72500
O64         O  0.06459098  0.47994057  0.98394683    -0.72600
Ni65       Ni  0.04346815  0.03467308  0.00900543     1.25400
Ni66       Ni  0.50638504  0.47382669  0.99824142     1.25400
C67         C  0.10051789  0.51612222  0.99109371     0.89700
C68         C  0.45353831  0.51283432  0.00162122     0.89600
C69         C  0.52263644  0.50688639  0.09736732     0.89600
C70         C  0.52690213  0.51761215  0.90464326     0.89800
O71         O  0.46985210  0.23116807  0.07043391    -0.72500
O72         O  0.47788452  0.22965285  0.92528037    -0.72500
O73         O  0.01347446  0.20693668  0.00046927    -0.72600
O74         O  0.42217654  0.23517416  0.99184653    -0.72600
O75         O  0.46390273  0.30790611  0.98887024    -0.72600
O76         O  0.05844523  0.27905391  0.99415727    -0.72500
O77         O  0.00575858  0.28157735  0.92164630    -0.72500
O78         O  0.01319387  0.29467108  0.06598320    -0.72600
Ni79       Ni  0.47205605  0.22764058  0.99789237     1.25400
Ni80       Ni  0.01107844  0.29068924  0.99347332     1.25400
C81         C  0.99358416  0.26060593  0.09408293     0.89700
C82         C  0.98062129  0.24376141  0.90235705     0.89600
C83         C  0.05216543  0.24007910  0.99695854     0.89600
C84         C  0.42608889  0.27318032  0.98856720     0.89800
O85         O  0.24315283  0.04165570  0.01568474    -0.72500
O86         O  0.34337382  0.02665634  0.01234144    -0.72500
O87         O  0.29884204  0.04562158  0.94266998    -0.72600
O88         O  0.28734933  0.02271521  0.08560504    -0.72600
O89         O  0.23742223  0.43700795  0.05403229    -0.72600
O90         O  0.24985183  0.45798597  0.90979738    -0.72500
O91         O  0.29662694  0.44567139  0.98354163    -0.72500
O92         O  0.18925261  0.44728512  0.98004410    -0.72600
Ni93       Ni  0.29479678  0.03670843  0.01468144     1.25400
Ni94       Ni  0.24190868  0.44437954  0.98130814     1.25400
C95         C  0.18952634  0.48346068  0.98466604     0.89700
C96         C  0.33254265  0.48091183  0.99271496     0.89600
C97         C  0.27720399  0.01391563  0.91194340     0.89600
C98         C  0.26468627  0.98322170  0.10175759     0.89800
O99         O  0.20704949  0.29499749  0.98082675    -0.72500
O100        O  0.31009823  0.28505709  0.98343643    -0.72500
O101        O  0.25300506  0.27885062  0.91103515    -0.72600
O102        O  0.26345512  0.30121158  0.05336203    -0.72600
O103        O  0.22435336  0.22933458  0.06812152    -0.72600
O104        O  0.21002384  0.20729454  0.92514993    -0.72500
O105        O  0.26890856  0.21303750  0.99578312    -0.72500
O106        O  0.16587916  0.22360616  0.99742429    -0.72600
Ni107      Ni  0.25991743  0.29252933  0.98161479     1.25400
Ni108      Ni  0.21586510  0.21570339  0.99718670     1.25400
C109        C  0.16966125  0.26116085  0.98919044     0.89700
C110        C  0.30647508  0.24735371  0.98955186     0.89600
C111        C  0.22947356  0.23964409  0.89458527     0.89600
C112        C  0.24524668  0.26894471  0.08415362     0.89800
O113        O  0.02747436  0.46461553  0.66483487    -0.72500
O114        O  0.03776642  0.07500999  0.66720816    -0.72500
O115        O  0.02961152  0.01827692  0.74222896    -0.72600
O116        O  0.02602981  0.01394767  0.59654523    -0.72600
O117        O  0.46885283  0.48422670  0.59230396    -0.72600
O118        O  0.46214760  0.47678618  0.73795130    -0.72500
O119        O  0.48187599  0.03737132  0.66490614    -0.72500
O120        O  0.45645102  0.42237171  0.66231541    -0.72600
Ni121      Ni  0.03051832  0.01745771  0.66933705     1.25400
Ni122      Ni  0.46264664  0.47934275  0.66495811     1.25400
C123        C  0.48952331  0.41685401  0.66521600     0.89700
C124        C  0.51802554  0.07369208  0.66925336     0.89600
C125        C  0.50982731  0.99537061  0.76367013     0.89600
C126        C  0.52921352  0.00766205  0.57244363     0.89800
O127        O  0.02699902  0.21328074  0.66401657    -0.72500
O128        O  0.04392657  0.32943145  0.65891699    -0.72500
O129        O  0.03994664  0.27522552  0.73373796    -0.72600
O130        O  0.03118175  0.26784762  0.58903735    -0.72600
O131        O  0.46803146  0.23080865  0.58806236    -0.72600
O132        O  0.45303595  0.22169751  0.73179097    -0.72500
O133        O  0.46825372  0.28429949  0.66151733    -0.72500
O134        O  0.45400349  0.16855611  0.65855464    -0.72600
Ni135      Ni  0.03811205  0.27239148  0.66121475     1.25400
Ni136      Ni  0.45821786  0.22528424  0.65960313     1.25400
C137        C  0.48788504  0.16453556  0.66490738     0.89700
C138        C  0.50700933  0.31764131  0.66519961     0.89600
C139        C  0.48666555  0.23681368  0.76059112     0.89600
C140        C  0.50616954  0.24510282  0.56908945     0.89800
O141        O  0.29548636  0.02420274  0.60371794    -0.72500
O142        O  0.28785155  0.02537224  0.74861226    -0.72500
O143        O  0.29207732  0.47115155  0.65126866    -0.72600
O144        O  0.28620966  0.07684550  0.67213588    -0.72600
O145        O  0.21355090  0.03456222  0.66880510    -0.72600
O146        O  0.21912997  0.43162062  0.64809791    -0.72500
O147        O  0.21460804  0.47827763  0.72577369    -0.72500
O148        O  0.21697744  0.49024771  0.58255667    -0.72600
Ni149      Ni  0.29418612  0.02661097  0.67626942     1.25400
Ni150      Ni  0.21382099  0.48348052  0.65416275     1.25400
C151        C  0.26043447  0.00341250  0.57740205     0.89700
C152        C  0.25042044  0.00272771  0.76991016     0.89600
C153        C  0.25683778  0.43427398  0.64843070     0.89600
C154        C  0.24790690  0.07250848  0.66917792     0.89800
O155        O  0.22740146  0.18257353  0.65747640    -0.72500
O156        O  0.20512845  0.27821416  0.65527926    -0.72500
O157        O  0.21690834  0.23097445  0.58327735    -0.72600
O158        O  0.21672461  0.23127685  0.72927264    -0.72600
O159        O  0.28825117  0.28005627  0.72807618    -0.72600
O160        O  0.28944028  0.27514104  0.58439011    -0.72500
O161        O  0.27707660  0.32484262  0.65235797    -0.72500
O162        O  0.29936207  0.22909897  0.66021684    -0.72600
Ni163      Ni  0.21391298  0.22891774  0.65628634     1.25400
Ni164      Ni  0.29104402  0.27889703  0.65625745     1.25400
C165        C  0.26679846  0.18987608  0.66012672     0.89700
C166        C  0.23750330  0.31731495  0.65285173     0.89600
C167        C  0.25353985  0.25340868  0.56012892     0.89600
C168        C  0.25271766  0.25674030  0.75239502     0.89800
C169        C  0.26185272  0.39539916  0.64637749    -0.14500
C170        C  0.22882946  0.35413406  0.65098430    -0.29700
H171        H  0.29517062  0.40156227  0.64328790     0.14500
H172        H  0.19536329  0.34739615  0.65449752     0.15100
C173        C  0.24186516  0.11098354  0.66589493    -0.14500
C174        C  0.27500467  0.15264858  0.66349520    -0.28500
H175        H  0.20831491  0.10440717  0.66501068     0.14500
H176        H  0.30867317  0.15961584  0.66438660     0.15100
C177        C  0.48165914  0.37159978  0.66371144    -0.14500
C178        C  0.51436912  0.36268565  0.66598742    -0.29700
H179        H  0.44803163  0.34498422  0.66074525     0.14500
H180        H  0.05047628  0.40660548  0.65915470     0.15100
C181        C  0.48353316  0.12052171  0.66466934    -0.14500
C182        C  0.51902373  0.11598012  0.66999945    -0.29700
H183        H  0.45130349  0.09190536  0.65963108     0.14500
H184        H  0.04685581  0.15292962  0.66547706     0.15100
C185        C  0.22484550  0.23179653  0.83948609    -0.14500
C186        C  0.25456111  0.26141867  0.80773032    -0.29700
H187        H  0.19792188  0.20132848  0.82509832     0.14500
H188        H  0.28282526  0.29036937  0.82307210     0.15100
C189        C  0.28025617  0.02290513  0.85702374    -0.14500
C190        C  0.24714756  0.99771363  0.82550978    -0.29700
H191        H  0.30984516  0.05085654  0.84241981     0.14500
H192        H  0.21532940  0.45870975  0.81944801     0.15100
C193        C  0.34591221  0.24287784  0.98984504    -0.14500
C194        C  0.38663359  0.27750991  0.98527075    -0.29700
H195        H  0.34127491  0.21028019  0.99503588     0.14500
H196        H  0.39132169  0.31017507  0.98068250     0.15100
C197        C  0.09000503  0.23308053  0.99625649    -0.14500
C198        C  0.13095152  0.26657865  0.98950185    -0.29700
H199        H  0.08410630  0.20000610  0.00120457     0.14500
H200        H  0.13655672  0.29950362  0.98399959     0.15100
C201        C  0.50888963  0.26609882  0.84659740    -0.14500
C202        C  0.48006655  0.23460859  0.81584862    -0.29700
H203        H  0.94656755  0.21175203  0.83136040     0.14500
H204        H  0.44953354  0.20838561  0.83108833     0.15100
C205        C  0.41254557  0.51434197  0.00155606    -0.14500
C206        C  0.37313803  0.47864557  0.99491363    -0.29700
H207        H  0.42408660  0.04860420  0.00975750     0.14500
H208        H  0.37052938  0.44688803  0.98991129     0.15100
C209        C  0.14330815  0.51789317  0.98993206    -0.14500
C210        C  0.14698624  0.48219212  0.98318226    -0.29700
H211        H  0.12072401  0.94906431  0.99177836     0.14500
H212        H  0.11769496  0.45058077  0.97751988     0.15100
C213        C  0.52788276  0.52038500  0.84874286    -0.14500
C214        C  0.49544128  0.49000535  0.81974812    -0.29700
H215        H  0.56356245  0.04444934  0.83851849     0.14500
H216        H  0.96987491  0.47983812  0.83267238     0.15100
C217        C  0.23080225  0.26359536  0.47491337    -0.14500
C218        C  0.25579987  0.25399076  0.50470774    -0.29700
H219        H  0.20691293  0.27066648  0.49155236     0.14500
H220        H  0.28186358  0.25021556  0.48818129     0.15100
C221        C  0.24590503  0.24929003  0.17314903    -0.14500
C222        C  0.24734259  0.27794323  0.13882756    -0.29700
H223        H  0.24619465  0.22012091  0.16067172     0.14500
H224        H  0.25086197  0.30891134  0.15106296     0.15100
C225        C  0.26411363  0.00139912  0.52186845    -0.14500
C226        C  0.23056920  0.99243607  0.49068652    -0.29700
H227        H  0.29555082  0.00894892  0.50611633     0.14500
H228        H  0.30184856  0.49678090  0.48941626     0.15100
C229        C  0.25528610  0.00255806  0.18777464    -0.14500
C230        C  0.25928053  0.97467864  0.15685250    -0.29700
H231        H  0.24723358  0.52118108  0.15369996     0.14500
H232        H  0.25558821  0.94424175  0.17157757     0.15100
C233        C  0.51130517  0.24713276  0.51355875    -0.14500
C234        C  0.02029247  0.25167957  0.48247560    -0.29700
H235        H  0.53744295  0.24327427  0.49742019     0.14500
H236        H  0.04768440  0.25033403  0.49942426     0.15100
C237        C  0.36271655  0.14544768  0.33814245    -0.14500
C238        C  0.35623596  0.10497793  0.34522262    -0.29700
H239        H  0.33511572  0.15061878  0.33288980     0.14500
H240        H  0.38426301  0.10041531  0.35017826     0.15100
C241        C  0.11842350  0.36456290  0.32396572    -0.14500
C242        C  0.15974979  0.37231512  0.32610537    -0.29700
H243        H  0.11248392  0.39190421  0.32222091     0.14500
H244        H  0.16611015  0.34525598  0.32775157     0.15100
C245        C  0.99766989  0.26579606  0.14951223    -0.14500
C246        C  0.00010015  0.23613090  0.17912116    -0.29700
H247        H  0.00119735  0.29556334  0.16599817     0.14500
H248        H  0.48193725  0.20935743  0.16304757     0.15100
C249        C  0.53429548  0.00907393  0.51698584    -0.14500
C250        C  0.50193089  0.00469272  0.48646476    -0.29700
H251        H  0.56498407  0.01452292  0.50107330     0.14500
H252        H  0.04459020  0.48908815  0.49967596     0.15100
C253        C  0.39051283  0.39065819  0.32524975    -0.14500
C254        C  0.34905427  0.38235085  0.32277248    -0.29700
H255        H  0.39703268  0.36370212  0.32687554     0.14500
H256        H  0.34283867  0.40952153  0.32109360     0.15100
C257        C  0.12772796  0.10744041  0.33534376    -0.14500
C258        C  0.13021173  0.14617991  0.32771991    -0.29700
H259        H  0.15739725  0.10555888  0.33881140     0.14500
H260        H  0.10031218  0.14753255  0.32323443     0.15100
C261        C  0.50613010  0.52492688  0.18131009    -0.14500
C262        C  0.51950509  0.50237420  0.15292651    -0.29700
H263        H  0.01437413  0.03439978  0.16955860     0.14500
H264        H  0.52452013  0.47728231  0.17028838     0.15100
O265        O  0.46898068  0.93238447  0.33624537    -0.72500
O266        O  0.08743589  0.53692102  0.32767842    -0.72500
O267        O  0.03035751  0.97530392  0.40724438    -0.72600
O268        O  0.02793207  0.97861310  0.26151265    -0.72600
O269        O  0.47690443  0.53187936  0.25931985    -0.72600
O270        O  0.46581257  0.52295734  0.40390058    -0.72500
O271        O  0.04967153  0.57165435  0.33635295    -0.72500
O272        O  0.43359795  0.96988632  0.33276085    -0.72600
Ni273      Ni  0.03038516  0.97535949  0.33422606     1.25400
Ni274      Ni  0.46974231  0.52823264  0.33148998     1.25400
C275        C  0.43327371  0.93334785  0.33487808     0.89700
C276        C  0.08625993  0.57235546  0.33270069     0.89600
C277        C  0.50489706  0.00514739  0.43104534     0.89600
C278        C  0.01161668  0.99984138  0.23989685     0.89800
O279        O  0.47946637  0.68217883  0.32465122    -0.72500
O280        O  0.05132721  0.79419269  0.33197753    -0.72500
O281        O  0.00504387  0.73715656  0.40626526    -0.72600
O282        O  0.99262117  0.73906500  0.26332820    -0.72600
O283        O  0.47801893  0.77270413  0.26634697    -0.72600
O284        O  0.48134981  0.75779275  0.40983815    -0.72500
O285        O  0.01283434  0.82792634  0.34311023    -0.72500
O286        O  0.43208987  0.70616440  0.33234661    -0.72600
Ni287      Ni  0.99973960  0.73694390  0.33448124     1.25400
Ni288      Ni  0.47800631  0.76606348  0.33840914     1.25400
C289        C  0.44014528  0.67480137  0.32660338     0.89700
C290        C  0.04939135  0.82940599  0.33680825     0.89600
C291        C  0.98770996  0.75318723  0.43513521     0.89600
C292        C  0.97310335  0.75776220  0.24357927     0.89800
O293        O  0.16884113  0.95614634  0.33179055    -0.72500
O294        O  0.28652775  0.56712675  0.32179350    -0.72500
O295        O  0.23349435  0.50796839  0.25236654    -0.72600
O296        O  0.24408175  0.50960568  0.39679455    -0.72600
O297        O  0.25541992  0.97503823  0.41441846    -0.72600
O298        O  0.26359832  0.97572496  0.26860783    -0.72500
O299        O  0.33268719  0.54165083  0.31394660    -0.72500
O300        O  0.20598502  0.92054569  0.33853537    -0.72600
Ni301      Ni  0.23691876  0.50942504  0.32479353     1.25400
Ni302      Ni  0.26074126  0.97361277  0.34175409     1.25400
C303        C  0.16983400  0.92028357  0.33422056     0.89700
C304        C  0.32545508  0.57371392  0.31776808     0.89600
C305        C  0.25350606  0.49340469  0.22545865     0.89600
C306        C  0.27037067  0.49898084  0.41747804     0.89800
O307        O  0.25890703  0.75438765  0.26715697    -0.72500
O308        O  0.26383548  0.74967368  0.41108222    -0.72500
O309        O  0.20809712  0.69644040  0.33865500    -0.72600
O310        O  0.31403835  0.80829599  0.33921903    -0.72600
O311        O  0.27487502  0.84151999  0.34812947    -0.72600
O312        O  0.16915695  0.73029558  0.34245150    -0.72500
O313        O  0.22215660  0.78037651  0.41834500    -0.72500
O314        O  0.22192733  0.79016360  0.27249230    -0.72600
Ni315      Ni  0.26262471  0.75107523  0.33888680     1.25400
Ni316      Ni  0.22065542  0.78686922  0.34564549     1.25400
C317        C  0.23975287  0.77289710  0.24594481     0.89700
C318        C  0.24325196  0.76321652  0.43844400     0.89600
C319        C  0.17112039  0.69514217  0.33990164     0.89600
C320        C  0.31185046  0.84337219  0.34344052     0.89800
O321        O  0.10029890  0.55161683  0.99988267    -0.72500
O322        O  0.48960387  0.54921172  0.00289723    -0.72500
O323        O  0.04197207  0.54021216  0.07375219    -0.72600
O324        O  0.04947755  0.56119201  0.92970551    -0.72600
O325        O  0.50283554  0.96981386  0.92451520    -0.72600
O326        O  0.49387014  0.95126129  0.06835189    -0.72500
O327        O  0.44902358  0.96934539  0.99774808    -0.72500
O328        O  0.04991536  0.95414947  0.99192044    -0.72600
Ni329      Ni  0.04714111  0.55363167  0.00229825     1.25400
Ni330      Ni  0.49663757  0.95790959  0.99596475     1.25400
C331        C  0.08774467  0.98749776  0.00000417     0.89700
C332        C  0.45525025  0.00815888  0.00288978     0.89600
C333        C  0.51344349  0.98443204  0.09769057     0.89600
C334        C  0.52820133  0.00839023  0.90702077     0.89800
O335        O  0.46455190  0.69637334  0.07477213    -0.72500
O336        O  0.45044596  0.69151700  0.93124231    -0.72500
O337        O  0.00658465  0.68535622  0.01054402    -0.72600
O338        O  0.40805992  0.70250756  0.00941904    -0.72600
O339        O  0.45208450  0.77473827  0.00244952    -0.72600
O340        O  0.05031929  0.75788744  0.01227460    -0.72500
O341        O  0.00348177  0.76435200  0.93451368    -0.72500
O342        O  0.99673066  0.76631142  0.07987872    -0.72600
Ni343      Ni  0.45590187  0.69159539  0.00318013     1.25400
Ni344      Ni  0.00190773  0.76798272  0.00719629     1.25400
C345        C  0.97497621  0.72998842  0.10383793     0.89700
C346        C  0.98062050  0.72788633  0.91125852     0.89600
C347        C  0.04490163  0.71915893  0.01252627     0.89600
C348        C  0.41371855  0.74130152  0.00705598     0.89800
O349        O  0.22562126  0.51968102  0.99089312    -0.72500
O350        O  0.33338502  0.51732868  0.99968192    -0.72500
O351        O  0.28896283  0.52983550  0.92436216    -0.72600
O352        O  0.27159836  0.50919725  0.06634485    -0.72600
O353        O  0.24599838  0.95108639  0.07087166    -0.72600
O354        O  0.25337255  0.97459232  0.92811581    -0.72500
O355        O  0.29995464  0.95568668  0.99543764    -0.72500
O356        O  0.19968442  0.96996819  0.00308354    -0.72600
Ni357      Ni  0.28112997  0.52154728  0.99578188     1.25400
Ni358      Ni  0.24825914  0.96029084  0.99887716     1.25400
C359        C  0.20495413  0.00825164  0.00973842     0.89700
C360        C  0.33812270  0.98873618  0.00274851     0.89600
C361        C  0.27216533  0.49764000  0.89364995     0.89600
C362        C  0.25267390  0.47013895  0.08382813     0.89800
O363        O  0.20059083  0.77376613  0.00704593    -0.72500
O364        O  0.30121082  0.75942568  0.00704990    -0.72500
O365        O  0.24624341  0.75947181  0.93453675    -0.72600
O366        O  0.25471092  0.77334008  0.07945166    -0.72600
O367        O  0.21394007  0.70079696  0.08780821    -0.72600
O368        O  0.20065405  0.68774011  0.94400782    -0.72500
O369        O  0.25769538  0.68705650  0.01313053    -0.72500
O370        O  0.15742638  0.70187020  0.01872356    -0.72600
Ni371      Ni  0.25232731  0.76911146  0.00664258     1.25400
Ni372      Ni  0.20595121  0.69182364  0.01626308     1.25400
C373        C  0.16252754  0.74024077  0.01311617     0.89700
C374        C  0.29599477  0.72083555  0.00996656     0.89600
C375        C  0.22107763  0.72142077  0.91556063     0.89600
C376        C  0.23576302  0.73898536  0.10733359     0.89800
O377        O  0.01824501  0.95831090  0.67183878    -0.72500
O378        O  0.03930472  0.57859945  0.65873255    -0.72500
O379        O  0.03532139  0.52477843  0.73463457    -0.72600
O380        O  0.03146606  0.51798760  0.58920554    -0.72600
O381        O  0.49067555  0.98881454  0.59148547    -0.72600
O382        O  0.47604818  0.97792293  0.73501076    -0.72500
O383        O  0.47343604  0.53797542  0.66775574    -0.72500
O384        O  0.48535981  0.93031906  0.66153144    -0.72600
Ni385      Ni  0.03605119  0.52268532  0.66177905     1.25400
Ni386      Ni  0.48089342  0.98232457  0.66287589     1.25400
C387        C  0.52211345  0.93154369  0.66680301     0.89700
C388        C  0.51218082  0.57125470  0.66878242     0.89600
C389        C  0.49760038  0.49168821  0.76382391     0.89600
C390        C  0.50610956  0.49794182  0.57087116     0.89800
O391        O  0.01947060  0.71080870  0.66527103    -0.72500
O392        O  0.03259413  0.82487578  0.67033962    -0.72500
O393        O  0.03585902  0.77014637  0.73987219    -0.72600
O394        O  0.01537629  0.76576819  0.59613941    -0.72600
O395        O  0.44644672  0.71776935  0.59744704    -0.72600
O396        O  0.45670123  0.72305956  0.74228751    -0.72500
O397        O  0.45208584  0.77438501  0.66926426    -0.72500
O398        O  0.45026186  0.66547641  0.67047688    -0.72600
Ni399      Ni  0.02840351  0.76890241  0.66742949     1.25400
Ni400      Ni  0.44882216  0.71881925  0.67011556     1.25400
C401        C  0.48608483  0.66475659  0.66839479     0.89700
C402        C  0.48854606  0.81011568  0.66502801     0.89600
C403        C  0.49487151  0.74314468  0.76259928     0.89600
C404        C  0.48121128  0.73424523  0.57040509     0.89800
O405        O  0.29004902  0.52692640  0.58295212    -0.72500
O406        O  0.28751934  0.51784204  0.72914229    -0.72500
O407        O  0.29667034  0.97335284  0.67982432    -0.72600
O408        O  0.28806740  0.57638153  0.66083275    -0.72600
O409        O  0.21505380  0.53885637  0.66054942    -0.72600
O410        O  0.22406677  0.93212141  0.67355697    -0.72500
O411        O  0.21535159  0.98231112  0.74354730    -0.72500
O412        O  0.22271254  0.98387161  0.59863653    -0.72600
Ni413      Ni  0.29201563  0.52461565  0.65614821     1.25400
Ni414      Ni  0.21638816  0.98189420  0.67096001     1.25400
C415        C  0.25338753  0.50944520  0.55898303     0.89700
C416        C  0.25022598  0.49478035  0.75100848     0.89600
C417        C  0.26185762  0.93565676  0.67783943     0.89600
C418        C  0.25145059  0.57544319  0.66208893     0.89800
O419        O  0.18579748  0.66781949  0.67470860    -0.72500
O420        O  0.19245517  0.77886183  0.68766617    -0.72500
O421        O  0.18230724  0.72601596  0.60900204    -0.72600
O422        O  0.19721846  0.72206819  0.75342018    -0.72600
O423        O  0.26967294  0.75817072  0.74290549    -0.72600
O424        O  0.25466997  0.75823936  0.59957958    -0.72500
O425        O  0.26472516  0.81345956  0.67567603    -0.72500
O426        O  0.25839577  0.70148952  0.66687423    -0.72600
Ni427      Ni  0.18685495  0.72236992  0.68158542     1.25400
Ni428      Ni  0.26442266  0.75887276  0.67089575     1.25400
C429        C  0.22094089  0.66619006  0.66929472     0.89700
C430        C  0.22922097  0.81427441  0.68292984     0.89600
C431        C  0.21639102  0.74360549  0.58064293     0.89600
C432        C  0.23617296  0.74063414  0.77182915     0.89800
C433        C  0.26519400  0.89555918  0.67997571    -0.14500
C434        C  0.22910458  0.85592606  0.68467628    -0.29700
H435        H  0.29725924  0.89853769  0.67700558     0.14500
H436        H  0.19733672  0.85353100  0.68862314     0.15100
C437        C  0.25302674  0.61809286  0.66498666    -0.14500
C438        C  0.21747528  0.62259329  0.66617069    -0.28500
H439        H  0.28528894  0.64720786  0.66605615     0.14500
H440        H  0.18506649  0.59369568  0.66558134     0.15100
C441        C  0.52402571  0.89078127  0.66607330    -0.14500
C442        C  0.48762579  0.85133883  0.66452450    -0.29700
H443        H  0.55595132  0.89329149  0.66775872     0.14500
H444        H  0.03865026  0.90049952  0.67628230     0.15100
C445        C  0.48313129  0.62160315  0.66924697    -0.14500
C446        C  0.51798295  0.61578384  0.66895191    -0.29700
H447        H  0.45034095  0.59323049  0.67005733     0.14500
H448        H  0.04297034  0.65415801  0.65721251     0.15100
C449        C  0.21400938  0.71594339  0.86023262    -0.14500
C450        C  0.24359230  0.74396844  0.82712110    -0.29700
H451        H  0.18406168  0.68789589  0.84645044     0.14500
H452        H  0.27484586  0.77011874  0.84095108     0.15100
C453        C  0.27885679  0.50730513  0.83895231    -0.14500
C454        C  0.24664628  0.48481903  0.80569909    -0.29700
H455        H  0.30910538  0.53568328  0.82646980     0.14500
H456        H  0.21667302  0.97154309  0.84097554     0.15100
C457        C  0.33426964  0.71446793  0.00975792    -0.14500
C458        C  0.37571635  0.74809111  0.00884820    -0.29700
H459        H  0.32803439  0.68105163  0.01024513     0.14500
H460        H  0.38202447  0.78153319  0.00826318     0.15100
C461        C  0.08305778  0.71278459  0.01477119    -0.14500
C462        C  0.12432555  0.74655375  0.01311541    -0.29700
H463        H  0.07696546  0.67944616  0.01664497     0.14500
H464        H  0.13037898  0.77984041  0.01037656     0.15100
C465        C  0.46671548  0.72286217  0.84954408    -0.14500
C466        C  0.49960514  0.74812349  0.81807526    -0.29700
H467        H  0.94932652  0.69917415  0.83865687     0.14500
H468        H  0.53130625  0.77201053  0.83344479     0.15100
C469        C  0.41757903  0.01537815  0.00441322    -0.14500
C470        C  0.37615774  0.98221661  0.00006101    -0.29700
H471        H  0.41513275  0.54616043  0.00575572     0.14500
H472        H  0.36975316  0.94906660  0.99431433     0.15100
C473        C  0.12613056  0.98152819  0.00002920    -0.14500
C474        C  0.16671224  0.01447824  0.01014836    -0.29700
H475        H  0.17256133  0.54946050  0.99596600     0.14500
H476        H  0.17220415  0.04700384  0.01818724     0.15100
C477        C  0.53397872  0.01581178  0.85198029    -0.14500
C478        C  0.50347099  0.98912313  0.81879845    -0.29700
H479        H  0.55538570  0.54851944  0.83102782     0.14500
H480        H  0.96128082  0.97643749  0.83990991     0.15100
C481        C  0.24572374  0.75946939  0.49384777    -0.14500
C482        C  0.21178951  0.74802408  0.52539156    -0.29700
H483        H  0.27610004  0.76308896  0.50871915     0.14500
H484        H  0.18032201  0.74130102  0.51041117     0.15100
C485        C  0.23786004  0.77347971  0.18999143    -0.14500
C486        C  0.23965007  0.74220977  0.16286843    -0.29700
H487        H  0.23267282  0.79792541  0.17117386     0.14500
H488        H  0.24074844  0.71565380  0.18247464     0.15100
C489        C  0.25147539  0.51082985  0.50337261    -0.14500
C490        C  0.27697009  0.50264669  0.47303251    -0.29700
H491        H  0.22463080  0.51356031  0.48710546     0.14500
H492        H  0.20033494  0.98867007  0.50602467     0.15100
C493        C  0.24998798  0.49433288  0.16995870    -0.14500
C494        C  0.24998019  0.46395927  0.13931734    -0.29700
H495        H  0.25504565  0.03077678  0.17151887     0.14500
H496        H  0.24912074  0.43509684  0.15515569     0.15100
C497        C  0.47708219  0.73452262  0.51478901    -0.14500
C498        C  0.99552827  0.75327328  0.49001853    -0.29700
H499        H  0.44634678  0.72938184  0.49915260     0.14500
H500        H  0.02418654  0.75166647  0.50194973     0.15100
C501        C  0.40398570  0.62923243  0.32208505    -0.14500
C502        C  0.36201920  0.61922892  0.31908135    -0.29700
H503        H  0.41213639  0.60337207  0.32147112     0.14500
H504        H  0.35396288  0.64515390  0.31981034     0.15100
C505        C  0.08942536  0.87279577  0.33546644    -0.14500
C506        C  0.12935815  0.87734751  0.33262789    -0.29700
H507        H  0.08593342  0.90159591  0.33821748     0.14500
H508        H  0.13275171  0.84844229  0.33101827     0.15100
C509        C  0.97361310  0.72912846  0.15949677    -0.14500
C510        C  0.97100241  0.75937154  0.18777524    -0.29700
H511        H  0.97342292  0.70145558  0.17792621     0.14500
H512        H  0.49166850  0.79057707  0.16674956     0.15100
C513        C  0.51017044  0.50056478  0.51512537    -0.14500
C514        C  0.48192001  0.50498919  0.48493617    -0.29700
H515        H  0.53860350  0.50109940  0.49866212     0.14500
H516        H  0.03862572  0.98668320  0.50664507     0.15100
C517        C  0.39189757  0.89092007  0.33594439    -0.14500
C518        C  0.35227321  0.88684922  0.34226956    -0.29700
H519        H  0.39451986  0.86166233  0.33255818     0.14500
H520        H  0.34934773  0.91587825  0.34634975     0.15100
C521        C  0.12807829  0.61430340  0.33428192    -0.14500
C522        C  0.12961293  0.65295492  0.33842322    -0.29700
H523        H  0.15826060  0.61328741  0.33184103     0.14500
H524        H  0.09937320  0.65388987  0.34056386     0.15100
C525        C  0.51056137  0.00912526  0.18312200    -0.14500
C526        C  0.50939338  0.97804729  0.15299911    -0.29700
H527        H  0.01117147  0.54176227  0.16631085     0.14500
H528        H  0.50400913  0.94732726  0.16892808     0.15100
O529        O  0.98025401  0.42659938  0.32573559    -0.72500
O530        O  0.57908171  0.03861773  0.33517693    -0.72500
O531        O  0.51194383  0.49715245  0.40690068    -0.72600
O532        O  0.52000294  0.50249328  0.26169013    -0.72600
O533        O  0.99483514  0.01828237  0.26580971    -0.72600
O534        O  0.99349629  0.01129724  0.41045048    -0.72500
O535        O  0.54501399  0.07743075  0.33615928    -0.72500
O536        O  0.94219126  0.46120781  0.33157516    -0.72600
Ni537      Ni  0.51755463  0.49870852  0.33436796     1.25400
Ni538      Ni  0.99282772  0.01582167  0.33812262     1.25400
C539        C  0.94358194  0.42559203  0.32912767     0.89700
C540        C  0.58040001  0.07544167  0.33620324     0.89600
C541        C  0.01718170  0.49485152  0.42626902     0.89600
C542        C  0.50060939  0.51913738  0.23676178     0.89800
O543        O  0.97871939  0.17335812  0.33580231    -0.72500
O544        O  0.55726048  0.27335005  0.32950886    -0.72500
O545        O  0.50116199  0.23019454  0.40617470    -0.72600
O546        O  0.49604525  0.21954015  0.26151237    -0.72600
O547        O  0.98705814  0.25947066  0.25883111    -0.72600
O548        O  0.99367911  0.26360000  0.40406010    -0.72500
O549        O  0.53109274  0.31919727  0.32674883    -0.72500
O550        O  0.93833360  0.20577306  0.33513516    -0.72600
Ni551      Ni  0.49963014  0.22338777  0.33401939     1.25400
Ni552      Ni  0.98888505  0.26280447  0.33152051     1.25400
C553        C  0.94134776  0.17115397  0.33693370     0.89700
C554        C  0.56347037  0.31226803  0.32718462     0.89600
C555        C  0.48674538  0.25301546  0.42752116     0.89600
C556        C  0.48357254  0.24179285  0.23508626     0.89800
O557        O  0.66808825  0.46708869  0.31863542    -0.72500
O558        O  0.78342370  0.07739479  0.33848831    -0.72500
O559        O  0.73615762  0.02179176  0.26353687    -0.72600
O560        O  0.72597464  0.02010092  0.40737737    -0.72600
O561        O  0.75113315  0.47523443  0.40214701    -0.72600
O562        O  0.75706660  0.47144496  0.25677947    -0.72500
O563        O  0.82413553  0.04538436  0.34186942    -0.72500
O564        O  0.69597422  0.42303872  0.32787359    -0.72600
Ni565      Ni  0.72977917  0.02194666  0.33526998     1.25400
Ni566      Ni  0.75507281  0.47162598  0.32973919     1.25400
C567        C  0.66297186  0.42868261  0.32261597     0.89700
C568        C  0.82093246  0.07988895  0.34038342     0.89600
C569        C  0.75682768  0.00499146  0.24240844     0.89600
C570        C  0.74611078  0.00573103  0.43449272     0.89800
O571        O  0.76501679  0.24282239  0.27169934    -0.72500
O572        O  0.76340536  0.24846810  0.41564278    -0.72500
O573        O  0.70809540  0.19327613  0.34430277    -0.72600
O574        O  0.82051228  0.29983328  0.34208918    -0.72600
O575        O  0.78608285  0.33826314  0.33967674    -0.72600
O576        O  0.67508446  0.23284365  0.33690967    -0.72500
O577        O  0.72765485  0.28554074  0.41121881    -0.72500
O578        O  0.73381699  0.28419813  0.26557595    -0.72600
Ni579      Ni  0.76559069  0.24482789  0.34371919     1.25400
Ni580      Ni  0.72958265  0.28671858  0.33820479     1.25400
C581        C  0.74949825  0.26208857  0.24496793     0.89700
C582        C  0.74416952  0.26659130  0.43728503     0.89600
C583        C  0.67311031  0.19577348  0.34023693     0.89600
C584        C  0.82150101  0.33672224  0.34019702     0.89800
O585        O  0.59195763  0.02279965  0.00936387    -0.72500
O586        O  0.99134977  0.03873557  0.00903528    -0.72500
O587        O  0.53659316  0.02321942  0.07983466    -0.72600
O588        O  0.54956259  0.04096629  0.93663942    -0.72600
O589        O  0.01090830  0.48905673  0.91707400    -0.72600
O590        O  0.00817066  0.46830403  0.05938307    -0.72500
O591        O  0.95494263  0.47889297  0.99255241    -0.72500
O592        O  0.56279740  0.47747521  0.99670484    -0.72600
Ni593      Ni  0.54458312  0.03457479  0.00868833     1.25400
Ni594      Ni  0.00834022  0.47649156  0.98775990     1.25400
C595        C  0.59865382  0.51426667  0.00069508     0.89700
C596        C  0.95548738  0.51525334  0.99888126     0.89600
C597        C  0.02435559  0.50061755  0.09003312     0.89600
C598        C  0.03075650  0.52823207  0.89979467     0.89800
O599        O  0.97047093  0.22238127  0.07482004    -0.72500
O600        O  0.95846052  0.21013606  0.93048713    -0.72500
O601        O  0.52454123  0.22497355  0.00409314    -0.72600
O602        O  0.91541976  0.22574475  0.00495160    -0.72600
O603        O  0.96053844  0.29732389  0.99336916    -0.72600
O604        O  0.56662035  0.29775308  0.00528428    -0.72500
O605        O  0.52154704  0.30222186  0.92535113    -0.72500
O606        O  0.50971479  0.30412101  0.06904421    -0.72600
Ni607      Ni  0.96279644  0.21369082  0.00299476     1.25400
Ni608      Ni  0.51686665  0.30560205  0.99711700     1.25400
C609        C  0.48853322  0.26810732  0.09348329     0.89700
C610        C  0.50205068  0.26575276  0.90169906     0.89600
C611        C  0.56227638  0.25945173  0.00661794     0.89600
C612        C  0.92193954  0.26469759  0.99954306     0.89800
O613        O  0.74091419  0.03649398  0.01256553    -0.72500
O614        O  0.84064458  0.02101359  0.01167036    -0.72500
O615        O  0.79570414  0.03735849  0.94056422    -0.72600
O616        O  0.78599999  0.02049315  0.08381718    -0.72600
O617        O  0.74064737  0.43870910  0.06094141    -0.72600
O618        O  0.74562338  0.45720323  0.91631860    -0.72500
O619        O  0.79740785  0.44755007  0.98625738    -0.72500
O620        O  0.68871100  0.44680351  0.99080766    -0.72600
Ni621      Ni  0.79236691  0.03133587  0.01258370     1.25400
Ni622      Ni  0.74188886  0.44497940  0.98811833     1.25400
C623        C  0.68856561  0.48274029  0.99577354     0.89700
C624        C  0.83352466  0.48323746  0.99334060     0.89600
C625        C  0.77397797  0.00464592  0.91127477     0.89600
C626        C  0.76358986  0.98185297  0.10226370     0.89800
O627        O  0.71782493  0.31070551  0.99781311    -0.72500
O628        O  0.81412779  0.28934371  0.00172676    -0.72500
O629        O  0.76031908  0.28886515  0.92836504    -0.72600
O630        O  0.77137432  0.31121711  0.07118133    -0.72600
O631        O  0.72711140  0.23986735  0.08543238    -0.72600
O632        O  0.71254430  0.21830492  0.94262886    -0.72500
O633        O  0.76782517  0.21812229  0.01402844    -0.72500
O634        O  0.67216983  0.24002284  0.01419036    -0.72600
Ni635      Ni  0.76762432  0.30257645  0.99922726     1.25400
Ni636      Ni  0.71829233  0.22657449  0.01462091     1.25400
C637        C  0.67912341  0.27878542  0.00589897     0.89700
C638        C  0.80677711  0.25016414  0.00786223     0.89600
C639        C  0.73456564  0.25000800  0.91198282     0.89600
C640        C  0.75084747  0.27909332  0.10177781     0.89800
O641        O  0.52851898  0.44970426  0.66935824    -0.72500
O642        O  0.55459316  0.07450994  0.67303987    -0.72500
O643        O  0.54853665  0.01695311  0.74510182    -0.72600
O644        O  0.56329620  0.02467116  0.60076131    -0.72600
O645        O  0.95912585  0.49044531  0.59149088    -0.72600
O646        O  0.96238650  0.49176166  0.73625867    -0.72500
O647        O  0.96570241  0.04867785  0.67105066    -0.72500
O648        O  0.95476270  0.43436377  0.66421111    -0.72600
Ni649      Ni  0.55862603  0.02244779  0.67331016     1.25400
Ni650      Ni  0.95820230  0.49020176  0.66395550     1.25400
C651        C  0.98906040  0.43073798  0.66475596     0.89700
C652        C  0.00496319  0.08109952  0.66858301     0.89600
C653        C  0.99356838  0.00310541  0.76679222     0.89600
C654        C  0.98944864  0.00106369  0.57369311     0.89800
O655        O  0.52580048  0.19824492  0.67131018    -0.72500
O656        O  0.54051446  0.31289413  0.66853239    -0.72500
O657        O  0.52539205  0.25365044  0.74211111    -0.72600
O658        O  0.53976822  0.25708997  0.59753692    -0.72600
O659        O  0.95930404  0.24232079  0.59436700    -0.72600
O660        O  0.96742653  0.24527154  0.73926588    -0.72500
O661        O  0.97183109  0.30158476  0.66650232    -0.72500
O662        O  0.95470566  0.18574460  0.66717747    -0.72600
Ni663      Ni  0.53540044  0.25645690  0.67022816     1.25400
Ni664      Ni  0.96075702  0.24272437  0.66699642     1.25400
C665        C  0.98796537  0.18040121  0.66616502     0.89700
C666        C  0.01058666  0.33454973  0.66244082     0.89600
C667        C  0.00515962  0.26138312  0.76026755     0.89600
C668        C  0.99384308  0.25434694  0.56790698     0.89800
O669        O  0.80166832  0.02959888  0.60554173    -0.72500
O670        O  0.78843565  0.01879108  0.74957988    -0.72500
O671        O  0.79548905  0.47400138  0.66505606    -0.72600
O672        O  0.78985608  0.07620456  0.67974287    -0.72600
O673        O  0.71735209  0.03461578  0.67217143    -0.72600
O674        O  0.72397865  0.42748307  0.65507469    -0.72500
O675        O  0.70694049  0.46919854  0.72871941    -0.72500
O676        O  0.71877512  0.48050481  0.58440822    -0.72600
Ni677      Ni  0.79752309  0.02594117  0.67790047     1.25400
Ni678      Ni  0.71031897  0.47361278  0.65627818     1.25400
C679        C  0.76766095  0.01089235  0.57727830     0.89700
C680        C  0.75030878  0.99483689  0.76873941     0.89600
C681        C  0.76330272  0.43501997  0.66029055     0.89600
C682        C  0.75175787  0.07226165  0.67684697     0.89800
O683        O  0.73411830  0.18406878  0.67731605    -0.72500
O684        O  0.71536502  0.28145104  0.67042973    -0.72500
O685        O  0.72542200  0.23151926  0.60107725    -0.72600
O686        O  0.72500226  0.23569163  0.74695116    -0.72600
O687        O  0.79691963  0.28280880  0.74557374    -0.72600
O688        O  0.79811143  0.27459442  0.60176273    -0.72500
O689        O  0.78759299  0.32703232  0.66771706    -0.72500
O690        O  0.80638085  0.22920531  0.67951631    -0.72600
Ni691      Ni  0.72237577  0.23139289  0.67400548     1.25400
Ni692      Ni  0.79981216  0.27995813  0.67369921     1.25400
C693        C  0.77313622  0.19037864  0.67950994     0.89700
C694        C  0.74827581  0.32014760  0.66729780     0.89600
C695        C  0.76206431  0.25287409  0.57767635     0.89600
C696        C  0.76106340  0.26117683  0.76996686     0.89800
C697        C  0.77223906  0.39859834  0.66170110    -0.14500
C698        C  0.73985305  0.35679665  0.66328830    -0.29700
H699        H  0.80616849  0.40643828  0.66322534     0.14500
H700        H  0.70593619  0.34906750  0.66258413     0.15100
C701        C  0.74633938  0.11107969  0.67833736    -0.14500
C702        C  0.78009003  0.15240008  0.68119892    -0.28500
H703        H  0.71309951  0.10523926  0.67580542     0.14500
H704        H  0.81344016  0.15853938  0.68335634     0.15100
C705        C  0.98339127  0.38649044  0.66515802    -0.14500
C706        C  0.01723501  0.37925299  0.66204410    -0.29700
H707        H  0.95016417  0.35902688  0.66753967     0.14500
H708        H  0.54796800  0.38936980  0.66894355     0.15100
C709        C  0.98032843  0.13532781  0.66762635    -0.14500
C710        C  0.01311414  0.12639598  0.66714248    -0.29700
H711        H  0.94660865  0.10873344  0.66923000     0.14500
H712        H  0.55107306  0.14495070  0.67472618     0.15100
C713        C  0.73037654  0.24138942  0.85695337    -0.14500
C714        C  0.76256132  0.26770994  0.82519908    -0.29700
H715        H  0.70165532  0.21229045  0.84273084     0.14500
H716        H  0.79223457  0.29517725  0.84048701     0.15100
C717        C  0.77774281  0.01244627  0.85625947    -0.14500
C718        C  0.74549584  0.98723793  0.82390475    -0.29700
H719        H  0.80727028  0.04084431  0.84225105     0.14500
H720        H  0.70627717  0.45432749  0.82605413     0.15100
C721        C  0.84336853  0.24119387  0.00760315    -0.14500
C722        C  0.88498995  0.27304493  0.00033478    -0.29700
H723        H  0.83580627  0.20761713  0.01314633     0.14500
H724        H  0.89243588  0.30658772  0.99479798     0.15100
C725        C  0.60067224  0.25376009  0.01047962    -0.14500
C726        C  0.64198503  0.28684991  0.00524181    -0.29700
H727        H  0.59436674  0.22055286  0.01565082     0.14500
H728        H  0.64854381  0.32002532  0.99898998     0.15100
C729        C  0.97649619  0.23867964  0.84688553    -0.14500
C730        C  0.00923469  0.26527178  0.81581449    -0.29700
H731        H  0.53755632  0.29419879  0.83053206     0.14500
H732        H  0.04039379  0.28994832  0.83159559     0.15100
C733        C  0.91431651  0.51687207  0.00037505    -0.14500
C734        C  0.87465800  0.48151582  0.99269029    -0.29700
H735        H  0.92042968  0.04347642  0.01154792     0.14500
H736        H  0.87207571  0.45002111  0.98552108     0.15100
C737        C  0.64164730  0.51644969  0.00053702    -0.14500
C738        C  0.64567533  0.48074780  0.99627994    -0.29700
H739        H  0.61696857  0.94370086  0.99653140     0.14500
H740        H  0.61648739  0.44873113  0.99284346     0.15100
C741        C  0.03207755  0.53497751  0.84442924    -0.14500
C742        C  0.99899654  0.50624224  0.81502053    -0.29700
H743        H  0.05965157  0.04293915  0.83551467     0.14500
H744        H  0.46616507  0.46390850  0.83745567     0.15100
C745        C  0.74025794  0.26479852  0.49308155    -0.14500
C746        C  0.76373863  0.25268680  0.52211554    -0.29700
H747        H  0.71851961  0.27434121  0.51068910     0.14500
H748        H  0.78805465  0.24652893  0.50492919     0.15100
C749        C  0.74819752  0.25625839  0.18981995    -0.14500
C750        C  0.75395062  0.28750922  0.15670891    -0.29700
H751        H  0.74399567  0.22540851  0.17598208     0.14500
H752        H  0.76191963  0.31976312  0.17005451     0.15100
C753        C  0.77352492  0.01273448  0.52185660    -0.14500
C754        C  0.74095086  0.00512647  0.48982595    -0.29700
H755        H  0.80546935  0.02104315  0.50704571     0.14500
H756        H  0.69827141  0.49123760  0.49254289     0.15100
C757        C  0.76094390  0.00790784  0.18696224    -0.14500
C758        C  0.75987799  0.97631461  0.15778402    -0.29700
H759        H  0.75139574  0.52539294  0.15656727     0.14500
H760        H  0.75417484  0.94574478  0.17452432     0.15100
C761        C  0.99014134  0.25287471  0.51222821    -0.14500
C762        C  0.48488830  0.25432893  0.48322258    -0.29700
H763        H  0.96117561  0.25112296  0.49541035     0.14500
H764        H  0.46108501  0.26156696  0.49980684     0.15100
C765        C  0.90127017  0.12789437  0.33984769    -0.14500
C766        C  0.86099380  0.12328072  0.34012987    -0.29700
H767        H  0.90503224  0.09919462  0.34079791     0.14500
H768        H  0.85721827  0.15196498  0.33894784     0.15100
C769        C  0.60887945  0.34935318  0.32556542    -0.14500
C770        C  0.61792599  0.39101675  0.32182287    -0.29700
H771        H  0.63537196  0.34219863  0.32815181     0.14500
H772        H  0.59133649  0.39801366  0.31895165     0.15100
C773        C  0.48603692  0.27005490  0.14904995    -0.14500
C774        C  0.48265151  0.23792043  0.17939670    -0.29700
H775        H  0.49036934  0.30013627  0.16556849     0.14500
H776        H  0.00071074  0.20849577  0.16195739     0.15100
C777        C  0.98716746  0.99975053  0.51776664    -0.14500
C778        C  0.01450840  0.99294098  0.48882429    -0.29700
H779        H  0.96105469  0.00285517  0.49997280     0.14500
H780        H  0.45505380  0.50731861  0.50158437     0.15100
C781        C  0.90263378  0.38242117  0.33104125    -0.14500
C782        C  0.86330744  0.37891073  0.33824781    -0.29700
H783        H  0.90499072  0.35305174  0.32715460     0.14500
H784        H  0.86125658  0.40848911  0.34170045     0.15100
C785        C  0.62394723  0.11550834  0.33774227    -0.14500
C786        C  0.62937043  0.15590604  0.33908358    -0.29700
H787        H  0.65248561  0.11145669  0.33777178     0.14500
H788        H  0.60089503  0.16005664  0.33855661     0.15100
C789        C  0.01629220  0.51536800  0.17911596    -0.14500
C790        C  0.02280809  0.49136815  0.14479222    -0.29700
H791        H  0.51206624  0.03799166  0.16628064     0.14500
H792        H  0.02439939  0.46273991  0.15683061     0.15100
O793        O  0.97424786  0.92329528  0.33355557    -0.72500
O794        O  0.56526153  0.55764306  0.33785153    -0.72500
O795        O  0.52394004  0.98709313  0.40847950    -0.72600
O796        O  0.52359038  0.98485634  0.26273375    -0.72600
O797        O  0.99530255  0.52213002  0.26186761    -0.72600
O798        O  0.99670113  0.51218794  0.40554117    -0.72500
O799        O  0.52083603  0.58550124  0.33711262    -0.72500
O800        O  0.93879064  0.96076076  0.33523656    -0.72600
Ni801      Ni  0.52508437  0.98433971  0.33567295     1.25400
Ni802      Ni  0.99451790  0.51786530  0.33398973     1.25400
C803        C  0.93853892  0.92433065  0.33318122     0.89700
C804        C  0.55946783  0.59068416  0.33793301     0.89600
C805        C  0.01238826  0.99293703  0.43278857     0.89600
C806        C  0.50797354  0.00562754  0.23862963     0.89800
O807        O  0.94473322  0.68239161  0.33745860    -0.72500
O808        O  0.57414853  0.80017796  0.32977399    -0.72500
O809        O  0.53066494  0.73659101  0.39934596    -0.72600
O810        O  0.52278815  0.74586867  0.25551593    -0.72600
O811        O  0.95623478  0.77524909  0.27140451    -0.72600
O812        O  0.96528997  0.76963555  0.41683117    -0.72500
O813        O  0.52746974  0.82428318  0.34310055    -0.72500
O814        O  0.90729974  0.71757616  0.34511088    -0.72600
Ni815      Ni  0.52847653  0.74039628  0.32699465     1.25400
Ni816      Ni  0.95894549  0.77373067  0.34452286     1.25400
C817        C  0.90827663  0.68199967  0.34132940     0.89700
C818        C  0.56658400  0.83163740  0.33718591     0.89600
C819        C  0.50686899  0.74517207  0.42822129     0.89600
C820        C  0.49929803  0.76101765  0.23736283     0.89800
O821        O  0.67941889  0.96394047  0.33262727    -0.72500
O822        O  0.78302452  0.56678613  0.32834008    -0.72500
O823        O  0.73145076  0.51767182  0.25135523    -0.72600
O824        O  0.71953413  0.51619306  0.39523102    -0.72600
O825        O  0.76940328  0.99125459  0.41421553    -0.72600
O826        O  0.77484606  0.98766322  0.26872546    -0.72500
O827        O  0.81209859  0.52346088  0.33130674    -0.72500
O828        O  0.72095437  0.93308689  0.34099243    -0.72600
Ni829      Ni  0.72457338  0.51846639  0.32308382     1.25400
Ni830      Ni  0.77378935  0.98820261  0.34172096     1.25400
C831        C  0.68339646  0.92984636  0.33643900     0.89700
C832        C  0.81650874  0.56177062  0.33124870     0.89600
C833        C  0.74581693  0.49473944  0.23029497     0.89600
C834        C  0.73382636  0.49596554  0.42236757     0.89800
O835        O  0.76060572  0.74620673  0.24999868    -0.72500
O836        O  0.77450611  0.74345908  0.39323829    -0.72500
O837        O  0.71534205  0.68874596  0.32454901    -0.72600
O838        O  0.81942117  0.80109461  0.31938833    -0.72600
O839        O  0.77990686  0.83342574  0.33274094    -0.72600
O840        O  0.67498787  0.72079142  0.33299495    -0.72500
O841        O  0.73222379  0.77305678  0.40481902    -0.72500
O842        O  0.72300063  0.78095442  0.26029332    -0.72600
Ni843      Ni  0.76883490  0.74375481  0.32129498     1.25400
Ni844      Ni  0.72605169  0.77824427  0.33303603     1.25400
C845        C  0.73981547  0.76412669  0.23145950     0.89700
C846        C  0.75547611  0.75743083  0.42258670     0.89600
C847        C  0.67808001  0.68621531  0.32967168     0.89600
C848        C  0.81697213  0.83570327  0.32655482     0.89800
O849        O  0.59822907  0.55012775  0.00486945    -0.72500
O850        O  0.99171646  0.55122862  0.00378568    -0.72500
O851        O  0.54035417  0.54487565  0.07655359    -0.72600
O852        O  0.54611684  0.55288271  0.93092502    -0.72600
O853        O  0.00228444  0.97115009  0.92360429    -0.72600
O854        O  0.99611326  0.94998702  0.06695746    -0.72500
O855        O  0.94847434  0.96665900  0.99876351    -0.72500
O856        O  0.54742184  0.95153653  0.99516001    -0.72600
Ni857      Ni  0.54491821  0.55186192  0.00398554     1.25400
Ni858      Ni  0.99768704  0.95790094  0.99476266     1.25400
C859        C  0.58585670  0.98422532  0.00229746     0.89700
C860        C  0.95327737  0.00483619  0.00464236     0.89600
C861        C  0.01478106  0.98270761  0.09708458     0.89600
C862        C  0.02605127  0.01026737  0.90672782     0.89800
O863        O  0.95534707  0.69345108  0.08030890    -0.72500
O864        O  0.95749391  0.69217964  0.93567134    -0.72500
O865        O  0.50696673  0.68604251  0.99653563    -0.72600
O866        O  0.90656202  0.70035466  0.00553932    -0.72600
O867        O  0.95043061  0.77284228  0.00216833    -0.72600
O868        O  0.55136348  0.75848227  0.99486459    -0.72500
O869        O  0.49698371  0.76344596  0.92601978    -0.72500
O870        O  0.50647323  0.76913051  0.07131622    -0.72600
Ni871      Ni  0.95498877  0.69027661  0.00803807     1.25400
Ni872      Ni  0.50329769  0.76911928  0.99850087     1.25400
C873        C  0.48787702  0.73325404  0.09663783     0.89700
C874        C  0.47184601  0.72636517  0.90493660     0.89600
C875        C  0.54547676  0.71959089  0.99441109     0.89600
C876        C  0.91207432  0.73904379  0.00269395     0.89800
O877        O  0.72457445  0.51935956  0.00012538    -0.72500
O878        O  0.83399555  0.51942875  0.00082885    -0.72500
O879        O  0.78446705  0.52932486  0.92909122    -0.72600
O880        O  0.77467663  0.51103159  0.07195532    -0.72600
O881        O  0.74412662  0.94832261  0.07335274    -0.72600
O882        O  0.74991970  0.96590088  0.92908467    -0.72500
O883        O  0.79707648  0.94944017  0.99843288    -0.72500
O884        O  0.69694322  0.96442206  0.00367477    -0.72600
Ni885      Ni  0.78075789  0.52234416  0.00092282     1.25400
Ni886      Ni  0.74543809  0.95437880  0.00074584     1.25400
C887        C  0.70254636  0.00302659  0.00838171     0.89700
C888        C  0.83532416  0.98277968  0.00435016     0.89600
C889        C  0.76600703  0.49660354  0.89917428     0.89600
C890        C  0.75594372  0.47218864  0.09017449     0.89800
O891        O  0.70117271  0.77296186  0.99011138    -0.72500
O892        O  0.80051187  0.75698463  0.99702191    -0.72500
O893        O  0.75187499  0.76219065  0.92092158    -0.72600
O894        O  0.74986814  0.76752201  0.06631297    -0.72600
O895        O  0.70767532  0.69479199  0.06903536    -0.72600
O896        O  0.70555012  0.69014492  0.92434026    -0.72500
O897        O  0.75626854  0.68450515  0.99777259    -0.72500
O898        O  0.65684540  0.70065712  0.99552697    -0.72600
Ni899      Ni  0.75244290  0.76753994  0.99346312     1.25400
Ni900      Ni  0.70497147  0.68997165  0.99677938     1.25400
C901        C  0.66266140  0.73944952  0.99209204     0.89700
C902        C  0.79474140  0.71814964  0.99819511     0.89600
C903        C  0.72865937  0.72520367  0.89883310     0.89600
C904        C  0.72906884  0.73173596  0.09150203     0.89800
O905        O  0.55775687  0.96785862  0.67280634    -0.72500
O906        O  0.54586177  0.56646050  0.66934364    -0.72500
O907        O  0.53479996  0.50742632  0.74190838    -0.72600
O908        O  0.54069935  0.50942431  0.59712657    -0.72600
O909        O  0.95429648  0.98976549  0.59862589    -0.72600
O910        O  0.95715553  0.98988525  0.74365682    -0.72500
O911        O  0.96672946  0.54823007  0.66363852    -0.72500
O912        O  0.94602562  0.93157390  0.67158276    -0.72600
Ni913      Ni  0.54004397  0.50919044  0.66961238     1.25400
Ni914      Ni  0.95325287  0.98915865  0.67125623     1.25400
C915        C  0.97903966  0.92579714  0.67283415     0.89700
C916        C  0.00497626  0.58217162  0.66101997     0.89600
C917        C  0.99923430  0.50842677  0.75928290     0.89600
C918        C  0.99449936  0.50291746  0.56658461     0.89800
O919        O  0.52314843  0.70031383  0.66540015    -0.72500
O920        O  0.52481382  0.81014009  0.66134691    -0.72500
O921        O  0.52950028  0.75976655  0.73543558    -0.72600
O922        O  0.51920367  0.75161078  0.59095402    -0.72600
O923        O  0.94393115  0.73770941  0.61018707    -0.72600
O924        O  0.96386798  0.73858197  0.75261172    -0.72500
O925        O  0.96105915  0.79545532  0.68514305    -0.72500
O926        O  0.94751100  0.68079718  0.67705209    -0.72600
Ni927      Ni  0.52680776  0.75665647  0.66302005     1.25400
Ni928      Ni  0.95156351  0.73702151  0.68182398     1.25400
C929        C  0.98136791  0.67700125  0.67003012     0.89700
C930        C  0.99907587  0.82895465  0.67797757     0.89600
C931        C  0.00290675  0.75477389  0.76983968     0.89600
C932        C  0.97629728  0.75187201  0.57971447     0.89800
O933        O  0.79076635  0.52539117  0.59269465    -0.72500
O934        O  0.77826828  0.51690901  0.73730694    -0.72500
O935        O  0.79979302  0.97278538  0.67536338    -0.72600
O936        O  0.77376637  0.56976077  0.66469776    -0.72600
O937        O  0.70196093  0.52339983  0.65821214    -0.72600
O938        O  0.72745569  0.93189792  0.66515017    -0.72500
O939        O  0.71615091  0.97631186  0.74062647    -0.72500
O940        O  0.72914224  0.98976451  0.59643235    -0.72600
Ni941      Ni  0.78706796  0.52335668  0.66527459     1.25400
Ni942      Ni  0.71994800  0.98182176  0.66824496     1.25400
C943        C  0.75684856  0.50374350  0.56481728     0.89700
C944        C  0.74089708  0.49011623  0.75670060     0.89600
C945        C  0.76520524  0.93538059  0.66954384     0.89600
C946        C  0.73445320  0.56253253  0.66120822     0.89800
O947        O  0.71485504  0.67518724  0.66155847    -0.72500
O948        O  0.70409733  0.77812312  0.66990492    -0.72500
O949        O  0.70228506  0.72654104  0.59383498    -0.72600
O950        O  0.71594281  0.72705318  0.73758197    -0.72600
O951        O  0.78813652  0.77073765  0.72972086    -0.72600
O952        O  0.77476781  0.76712735  0.58506148    -0.72500
O953        O  0.77633230  0.81995525  0.65996319    -0.72500
O954        O  0.78729906  0.71775940  0.65486906    -0.72600
Ni955      Ni  0.70671223  0.72512900  0.66599632     1.25400
Ni956      Ni  0.78421046  0.77029359  0.65704769     1.25400
C957        C  0.75315419  0.67974555  0.65763094     0.89700
C958        C  0.73852024  0.81593837  0.66597337     0.89600
C959        C  0.73615962  0.74716070  0.56583633     0.89600
C960        C  0.75404512  0.74953660  0.75741553     0.89800
C961        C  0.76934516  0.89591974  0.66786408    -0.14500
C962        C  0.73421362  0.85531561  0.66809941    -0.29700
H963        H  0.80212962  0.90045241  0.66701844     0.14500
H964        H  0.70145573  0.85076080  0.67012437     0.15100
C965        C  0.72626415  0.59975850  0.66048221    -0.14500
C966        C  0.75933735  0.64136340  0.65701198    -0.28500
H967        H  0.69266056  0.59284723  0.66244320     0.14500
H968        H  0.79278727  0.64788331  0.65428653     0.15100
C969        C  0.97159378  0.88090593  0.67577213    -0.14500
C970        C  0.00521304  0.87329387  0.67746848    -0.29700
H971        H  0.93809809  0.85379687  0.67606717     0.14500
H972        H  0.45573830  0.84897008  0.66400801     0.15100
C973        C  0.97597320  0.63279147  0.66771711    -0.14500
C974        C  0.01011373  0.62631388  0.66124393    -0.29700
H975        H  0.94317463  0.60495823  0.67221167     0.14500
H976        H  0.55094087  0.64385138  0.66849727     0.15100
C977        C  0.72690487  0.72228830  0.84315002    -0.14500
C978        C  0.75861192  0.75197501  0.81308965    -0.29700
H979        H  0.69862615  0.69427454  0.82636745     0.14500
H980        H  0.78828364  0.77851011  0.82958908     0.15100
C981        C  0.76940150  0.50549087  0.84427564    -0.14500
C982        C  0.73673891  0.48142018  0.81184454    -0.29700
H983        H  0.79877832  0.53425616  0.83065281     0.14500
H984        H  0.71480577  0.96057000  0.83822529     0.15100
C985        C  0.83271771  0.71158112  0.00022263    -0.14500
C986        C  0.87399119  0.74538111  0.00012852    -0.29700
H987        H  0.82651724  0.67820334  0.00194619     0.14500
H988        H  0.88015962  0.77874333  0.99827773     0.15100
C989        C  0.58333084  0.71274145  0.99234171    -0.14500
C990        C  0.62476308  0.74626578  0.99097667    -0.29700
H991        H  0.57689836  0.67926230  0.99323755     0.14500
H992        H  0.63120800  0.77974676  0.98994073     0.15100
C993        C  0.97836033  0.72631663  0.85550797    -0.14500
C994        C  0.00969814  0.75617277  0.82520828    -0.29700
H995        H  0.43607062  0.69674857  0.83435349     0.14500
H996        H  0.04036037  0.78162545  0.84112600     0.15100
C997        C  0.91472413  0.01049081  0.00658244    -0.14500
C998        C  0.87362244  0.97664686  0.00247297    -0.29700
H999        H  0.91692776  0.54841084  0.00731672     0.14500
H1000       H  0.86784592  0.94365477  0.99730505     0.15100
C1001       C  0.62341338  0.97686061  0.00230026    -0.14500
C1002       C  0.66465684  0.00980100  0.00888315    -0.29700
H1003       H  0.67081238  0.54848927  0.00390821     0.14500
H1004       H  0.67104353  0.04297793  0.01430017     0.15100
C1005       C  0.02857140  0.01860501  0.85170899    -0.14500
C1006       C  0.99273663  0.99817172  0.82239660    -0.29700
H1007       H  0.05985029  0.56359181  0.82783785     0.14500
H1008       H  0.47259980  0.96225133  0.83242893     0.15100
C1009       C  0.76155906  0.75593461  0.47758329    -0.14500
C1010       C  0.72995175  0.74861946  0.51076710    -0.29700
H1011       H  0.79197557  0.75864234  0.49091022     0.14500
H1012       H  0.69823711  0.74231824  0.49710481     0.15100
C1013       C  0.73540834  0.76527772  0.17592650    -0.14500
C1014       C  0.73105456  0.73194413  0.14725392    -0.29700
H1015       H  0.73468236  0.79287736  0.15865059     0.14500
H1016       H  0.72794333  0.70288582  0.16555372     0.15100
C1017       C  0.76215942  0.50462336  0.50934599    -0.14500
C1018       C  0.72903032  0.49598775  0.47766922    -0.29700
H1019       H  0.79408240  0.51322050  0.49416830     0.14500
H1020       H  0.71008082  0.00022319  0.50450622     0.15100
C1021       C  0.75038881  0.49721427  0.17472087    -0.14500
C1022       C  0.75144062  0.46643020  0.14579012    -0.29700
H1023       H  0.76245479  0.03645024  0.16917131     0.14500
H1024       H  0.74714398  0.43643987  0.16271065     0.15100
C1025       C  0.96785060  0.75262347  0.52501220    -0.14500
C1026       C  0.50989050  0.74129329  0.48354392    -0.29700
H1027       H  0.93751608  0.75095435  0.51329380     0.14500
H1028       H  0.53960599  0.74364315  0.49883716     0.15100
C1029       C  0.86580644  0.64088503  0.34061149    -0.14500
C1030       C  0.86082202  0.60085367  0.33447487    -0.29700
H1031       H  0.83693849  0.64420618  0.34409104     0.14500
H1032       H  0.88927138  0.59680482  0.33157372     0.15100
C1033       C  0.60351136  0.87710999  0.33844690    -0.14500
C1034       C  0.64498355  0.88553260  0.33542753    -0.29700
H1035       H  0.59664588  0.90372183  0.34199917     0.14500
H1036       H  0.65147587  0.85858662  0.33309954     0.15100
C1037       C  0.49405604  0.73323764  0.15167617    -0.14500
C1038       C  0.49602308  0.76442583  0.18214943    -0.29700
H1039       H  0.49391669  0.70488626  0.16811130     0.14500
H1040       H  0.96739670  0.78514347  0.16988516     0.15100
C1041       C  0.99192441  0.50051604  0.51095157    -0.14500
C1042       C  0.01972179  0.49434023  0.48210559    -0.29700
H1043       H  0.96519911  0.50259530  0.49322171     0.14500
H1044       H  0.47281180  0.00292017  0.50265276     0.15100
C1045       C  0.89710511  0.88227877  0.32986807    -0.14500
C1046       C  0.85745014  0.87889737  0.32871811    -0.29700
H1047       H  0.89957333  0.85283920  0.32837906     0.14500
H1048       H  0.85458340  0.90807225  0.33094813     0.15100
C1049       C  0.59789031  0.63545884  0.33779091    -0.14500
C1050       C  0.63871841  0.64231603  0.33181414    -0.29700
H1051       H  0.59245688  0.66304157  0.34095329     0.14500
H1052       H  0.64375254  0.61451740  0.32801046     0.15100
C1053       C  0.01329990  0.00513700  0.18446976    -0.14500
C1054       C  0.01178436  0.97506043  0.15228554    -0.29700
H1055       H  0.49747301  0.54720190  0.16306034     0.14500
H1056       H  0.00693035  0.94403402  0.16655223     0.15100
loop_ 
_geom_bond_atom_site_label_1 
_geom_bond_atom_site_label_2 
_geom_bond_distance 
_geom_bond_site_symmetry_2 
_ccdc_geom_bond_type 
O1           C11   1.279       .  A
O1         Ni537   1.917       .  S
O2           C12   1.278       .  A
O2         Ni273   1.914   1_545  S
O3          C541   1.284       .  A
O3           Ni9   1.932       .  S
O4           C14   1.285       .  A
O4           Ni9   1.934       .  S
O5          C806   1.278       .  A
O5          Ni10   1.909       .  S
O6          C277   1.277       .  A
O6          Ni10   1.905       .  S
O7           C12   1.284       .  A
O7         Ni538   1.920   1_455  S
O8           C11   1.285       .  A
O8         Ni274   1.926       .  S
Ni9         O529   1.922   1_455  S
Ni9         O266   1.916       .  S
Ni9        Ni802   2.388   1_455  S
Ni10        O535   1.933       .  S
Ni10        O272   1.934   1_545  S
Ni10       Ni801   2.390   1_545  S
C11         C253   1.482       .  S
C12         C257   1.476       .  S
C13         O531   1.283       .  A
C13         O270   1.281       .  A
C13         C514   1.481       .  S
C14         O797   1.278   1_455  A
C14         C789   1.478       .  S
O15          C25   1.282       .  A
O15        Ni551   1.910       .  S
O16          C26   1.283       .  A
O16         Ni23   1.926       .  S
O17          C27   1.279       .  A
O17         Ni23   1.915       .  S
O18          C28   1.280       .  A
O18         Ni23   1.917       .  S
O19         C556   1.282       .  A
O19         Ni24   1.921       .  S
O20         C555   1.281       .  A
O20         Ni24   1.921       .  S
O21          C26   1.279       .  A
O21        Ni552   1.908   1_455  S
O22          C25   1.280       .  A
O22         Ni24   1.921       .  S
Ni23        O543   1.923   1_455  S
Ni23       Ni552   2.390   1_455  S
Ni24        O549   1.921       .  S
Ni24       Ni551   2.389       .  S
C25         C237   1.477       .  S
C26         C241   1.472       .  S
C27         O548   1.283   1_455  A
C27         C234   1.474       .  S
C28         O547   1.283   1_455  A
C28         C246   1.474       .  S
O29          C39   1.282       .  A
O29        Ni301   1.913       .  S
O30          C40   1.284       .  A
O30         Ni37   1.931       .  S
O31          C41   1.278   1_545  A
O31         Ni37   1.909       .  S
O32          C42   1.278   1_545  A
O32         Ni37   1.911       .  S
O33         C306   1.281       .  A
O33         Ni38   1.924       .  S
O34         C305   1.282       .  A
O34         Ni38   1.925       .  S
O35          C40   1.276       .  A
O35        Ni302   1.897   1_545  S
O36          C39   1.281       .  A
O36         Ni38   1.922       .  S
Ni37        O293   1.930   1_545  S
Ni37       Ni302   2.391   1_545  S
Ni38        O299   1.923       .  S
Ni38       Ni301   2.389       .  S
C39         C242   1.478       .  S
C40         C238   1.468       .  S
C41         O298   1.285       .  A
C41         C229   1.476   1_565  S
C42         O297   1.285       .  A
C42         C226   1.475       .  S
O43          C53   1.277       .  A
O43         Ni51   1.906       .  S
O44          C54   1.279       .  A
O44         Ni51   1.902       .  S
O45          C55   1.285       .  A
O45         Ni51   1.931       .  S
O46          C56   1.286       .  A
O46         Ni51   1.938       .  S
O47          C56   1.277       .  A
O47         Ni52   1.906       .  S
O48          C55   1.277       .  A
O48         Ni52   1.903       .  S
O49          C54   1.284       .  A
O49         Ni52   1.932       .  S
O50          C53   1.285       .  A
O50         Ni52   1.931       .  S
Ni51        Ni52   2.389       .  S
C53         C221   1.471       .  S
C54         C217   1.479       .  S
C55         C258   1.472       .  S
C56         C254   1.478       .  S
O57         C331   1.281   1_545  A
O57         Ni65   1.915       .  S
O58         C332   1.280       .  A
O58        Ni593   1.917       .  S
O59         C861   1.282   1_545  A
O59         Ni65   1.917       .  S
O60         C862   1.280       .  A
O60         Ni65   1.920   1_556  S
O61          C70   1.280       .  A
O61         Ni66   1.916       .  S
O62          C69   1.279       .  A
O62         Ni66   1.915   1_554  S
O63          C68   1.285       .  A
O63         Ni66   1.928   1_554  S
O64          C67   1.285       .  A
O64        Ni594   1.930       .  S
Ni65        O586   1.916   1_455  S
Ni65       Ni858   2.389   1_444  S
Ni66        O592   1.931       .  S
Ni66       Ni857   2.389   1_556  S
C67         O321   1.279       .  A
C67         C209   1.481       .  S
C68         O322   1.277       .  A
C68         C205   1.474       .  S
C69         O851   1.284       .  A
C69         C262   1.475       .  S
C70         O852   1.284       .  A
C70         C213   1.479       .  S
O71         C609   1.283       .  A
O71         Ni79   1.926   1_554  S
O72         C610   1.284       .  A
O72         Ni79   1.928       .  S
O73          C83   1.281   1_554  A
O73        Ni607   1.921   1_455  S
O74          C84   1.281       .  A
O74         Ni79   1.914       .  S
O75          C84   1.282       .  A
O75        Ni608   1.923       .  S
O76          C83   1.281       .  A
O76         Ni80   1.911       .  S
O77          C82   1.282   1_455  A
O77         Ni80   1.919       .  S
O78          C81   1.280   1_455  A
O78         Ni80   1.920   1_554  S
Ni79        O601   1.908   1_556  S
Ni79       Ni608   2.390       .  S
Ni80        O603   1.912   1_455  S
Ni80       Ni607   2.389   1_456  S
C81         O599   1.282       .  A
C81         C245   1.474       .  S
C82         O600   1.281       .  A
C82         C729   1.475       .  S
C83         C197   1.475       .  S
C84         C194   1.478       .  S
O85         C359   1.280       .  A
O85         Ni93   1.917       .  S
O86         C360   1.282   1_545  A
O86         Ni93   1.919       .  S
O87          C97   1.281       .  A
O87         Ni93   1.922   1_556  S
O88          C98   1.283   1_545  A
O88         Ni93   1.921       .  S
O89         C362   1.284       .  A
O89         Ni94   1.935   1_554  S
O90         C361   1.286       .  A
O90         Ni94   1.934       .  S
O91          C96   1.278       .  A
O91         Ni94   1.910       .  S
O92          C95   1.278       .  A
O92         Ni94   1.912       .  S
Ni93       Ni358   2.390   1_544  S
Ni94       Ni357   2.389       .  S
C95         O349   1.285       .  A
C95         C210   1.480       .  S
C96         O350   1.285       .  A
C96         C206   1.476       .  S
C97         O354   1.283   1_545  A
C97         C189   1.477       .  S
C98         O353   1.281       .  A
C98         C230   1.479       .  S
O99         C109   1.279       .  A
O99        Ni107   1.911       .  S
O100        C110   1.281       .  A
O100       Ni107   1.918       .  S
O101        C111   1.282       .  A
O101       Ni107   1.912       .  S
O102        C112   1.279       .  A
O102       Ni107   1.915   1_554  S
O103        C112   1.283       .  A
O103       Ni108   1.921   1_554  S
O104        C111   1.280       .  A
O104       Ni108   1.922       .  S
O105        C110   1.282       .  A
O105       Ni108   1.922       .  S
O106        C109   1.282       .  A
O106       Ni108   1.920       .  S
Ni107      Ni108   2.390       .  S
C109        C198   1.472       .  S
C110        C193   1.478       .  S
C111        C185   1.476       .  S
C112        C222   1.474       .  S
O113        C651   1.282   1_455  A
O113       Ni385   1.918       .  S
O114        C652   1.280       .  A
O114       Ni121   1.917       .  S
O115        C653   1.283   1_455  A
O115       Ni121   1.927       .  S
O116        C654   1.283   1_455  A
O116       Ni121   1.929       .  S
O117        C390   1.284       .  A
O117       Ni122   1.930       .  S
O118        C389   1.283       .  A
O118       Ni122   1.930       .  S
O119        C124   1.283       .  A
O119       Ni386   1.927   1_545  S
O120        C123   1.278       .  A
O120       Ni122   1.912       .  S
Ni121       O377   1.909   1_545  S
Ni121      Ni914   2.389   1_445  S
Ni122       O383   1.909       .  S
Ni122      Ni913   2.388       .  S
C123        O641   1.285       .  A
C123        C177   1.479       .  S
C124        O642   1.280       .  A
C124        C182   1.476       .  S
C125        O643   1.283   1_565  A
C125        O382   1.279       .  A
C125        C478   1.473       .  S
C126        O644   1.281       .  A
C126        O381   1.281   1_545  A
C126        C249   1.474       .  S
O127        C665   1.283   1_455  A
O127       Ni135   1.921       .  S
O128        C666   1.281       .  A
O128       Ni135   1.920       .  S
O129        C667   1.280       .  A
O129       Ni135   1.918       .  S
O130        C668   1.282   1_455  A
O130       Ni135   1.919       .  S
O131        C140   1.281       .  A
O131       Ni136   1.914       .  S
O132        C139   1.279       .  A
O132       Ni136   1.914       .  S
O133        C138   1.285       .  A
O133       Ni136   1.931       .  S
O134        C137   1.284       .  A
O134       Ni136   1.933       .  S
Ni135      Ni664   2.390   1_455  S
Ni136      Ni663   2.388       .  S
C137        O655   1.280       .  A
C137        C181   1.483       .  S
C138        O656   1.278       .  A
C138        C178   1.477       .  S
C139        O657   1.284       .  A
C139        C202   1.475       .  S
C140        O658   1.282       .  A
C140        C233   1.476       .  S
O141        C151   1.281       .  A
O141       Ni149   1.921       .  S
O142        C152   1.282       .  A
O142       Ni149   1.923       .  S
O143        C153   1.274       .  A
O143       Ni413   1.893       .  S
O144        C154   1.284       .  A
O144       Ni149   1.933       .  S
O145        C154   1.279       .  A
O145       Ni414   1.912   1_545  S
O146        C153   1.287       .  A
O146       Ni150   1.939       .  S
O147        C416   1.276       .  A
O147       Ni150   1.902       .  S
O148        C415   1.276       .  A
O148       Ni150   1.903       .  S
Ni149       O407   1.928   1_545  S
Ni149      Ni414   2.389   1_545  S
Ni150       O409   1.941       .  S
Ni150      Ni413   2.390       .  S
C151        O412   1.283   1_545  A
C151        C225   1.479       .  S
C152        O411   1.281   1_545  A
C152        C190   1.477   1_545  S
C153        C169   1.470       .  S
C154        C173   1.479       .  S
O155        C165   1.283       .  A
O155       Ni163   1.920       .  S
O156        C166   1.278       .  A
O156       Ni163   1.915       .  S
O157        C167   1.284       .  A
O157       Ni163   1.931       .  S
O158        C168   1.284       .  A
O158       Ni163   1.931       .  S
O159        C168   1.277       .  A
O159       Ni164   1.902       .  S
O160        C167   1.276       .  A
O160       Ni164   1.903       .  S
O161        C166   1.285       .  A
O161       Ni164   1.920       .  S
O162        C165   1.282       .  A
O162       Ni164   1.924       .  S
Ni163      Ni164   2.389       .  S
C165        C174   1.483       .  S
C166        C170   1.478       .  S
C167        C218   1.466       .  S
C168        C186   1.470       .  S
C169        C170   1.339       .  D
C169        H171   1.087       .  S
C170        H172   1.086       .  S
C173        C174   1.346       .  D
C173        H175   1.087       .  S
C174        H176   1.086       .  S
C177        C178   1.341       .  D
C177        H179   1.086       .  S
C178        H708   1.086       .  S
H180        C706   1.086       .  S
C181        C182   1.347       .  D
C181        H183   1.086       .  S
C182        H712   1.087       .  S
H184        C710   1.086       .  S
C185        C186   1.341       .  D
C185        H187   1.086       .  S
C186        H188   1.087       .  S
C189        C190   1.344   1_545  D
C189        H191   1.086       .  S
C190        H456   1.087       .  S
H192        C454   1.087       .  S
C193        C194   1.347       .  D
C193        H195   1.086       .  S
C194        H196   1.086       .  S
C197        C198   1.344       .  D
C197        H199   1.086   1_556  S
C198        H200   1.086       .  S
C201        C610   1.476       .  S
C201        C202   1.341       .  D
C201        H731   1.087       .  S
C202        H204   1.087       .  S
H203        C729   1.087       .  S
C205        C206   1.340   1_554  D
C205        H471   1.086       .  S
C206        H208   1.086       .  S
H207        C469   1.086       .  S
C209        C210   1.343       .  D
C209        H475   1.086       .  S
C210        H212   1.086       .  S
H211        C473   1.086   1_556  S
C213        C214   1.348       .  D
C213        H479   1.087       .  S
C214        C389   1.479       .  S
C214        H744   1.087       .  S
H215        C477   1.087       .  S
H216        C742   1.087       .  S
C217        C218   1.344       .  D
C217        H219   1.087       .  S
C218        H220   1.087       .  S
C221        C222   1.338       .  D
C221        H223   1.087       .  S
C222        H224   1.087       .  S
C225        C226   1.342   1_545  D
C225        H227   1.087       .  S
C226        H492   1.087       .  S
H228        C490   1.087       .  S
C229        C230   1.342   1_545  D
C229        H495   1.087       .  S
C230        H232   1.086       .  S
H231        C493   1.087       .  S
C233        C762   1.345       .  D
C233        H235   1.086       .  S
C234        C761   1.343   1_455  D
C234        H236   1.087       .  S
C237        C238   1.341       .  D
C237        H239   1.086       .  S
C238        H240   1.087       .  S
C241        C242   1.344       .  D
C241        H243   1.086       .  S
C242        H244   1.086       .  S
C245        C246   1.342   1_655  D
C245        H247   1.087   1_655  S
C246        H776   1.087       .  S
H248        C774   1.087       .  S
C249        C250   1.341       .  D
C249        H251   1.087       .  S
C250        C277   1.468       .  S
C250       H1044   1.087       .  S
H252       C1042   1.087       .  S
C253        C254   1.342       .  D
C253        H255   1.086       .  S
C254        H256   1.087       .  S
C257        C258   1.340       .  D
C257        H259   1.086       .  S
C258        H260   1.086       .  S
C261        C542   1.479       .  S
C261        C262   1.342       .  D
C261       H1055   1.087       .  S
C262        H264   1.087       .  S
H263       C1053   1.087       .  S
O265        C275   1.278       .  A
O265       Ni801   1.909       .  S
O266        C276   1.280       .  A
O267        C805   1.283       .  A
O267       Ni273   1.929       .  S
O268        C278   1.284       .  A
O268       Ni273   1.929       .  S
O269        C542   1.281       .  A
O269       Ni274   1.920       .  S
O270       Ni274   1.920       .  S
O271        C276   1.283       .  A
O271       Ni802   1.922   1_455  S
O272        C275   1.285       .  A
Ni273       O793   1.911   1_455  S
Ni273      Ni538   2.389   1_465  S
Ni274       O799   1.925       .  S
Ni274      Ni537   2.388       .  S
C275        C517   1.478       .  S
C276        C521   1.477       .  S
C277        O795   1.284   1_545  A
C278        O533   1.279   1_465  A
C278       C1053   1.473   1_565  S
O279        C289   1.279       .  A
O279       Ni815   1.912       .  S
O280        C290   1.285       .  A
O280       Ni287   1.927   1_455  S
O281        C291   1.276   1_455  A
O281       Ni287   1.905   1_455  S
O282        C292   1.278       .  A
O282       Ni287   1.902       .  S
O283        C820   1.280       .  A
O283       Ni288   1.918       .  S
O284        C819   1.282       .  A
O284       Ni288   1.921       .  S
O285        C290   1.276       .  A
O285       Ni816   1.906   1_455  S
O286        C289   1.283       .  A
O286       Ni288   1.920       .  S
Ni287       O807   1.933       .  S
Ni287      Ni816   2.390       .  S
Ni288       O813   1.921       .  S
Ni288      Ni815   2.389       .  S
C289        C501   1.474       .  S
C290        C505   1.474       .  S
C291        O812   1.286       .  A
C291        C498   1.475       .  S
C292        O811   1.285       .  A
C292        C510   1.478       .  S
O293        C303   1.285       .  A
O294        C304   1.278       .  A
O294       Ni301   1.909       .  S
O295        C305   1.280       .  A
O295       Ni301   1.916       .  S
O296        C306   1.283       .  A
O296       Ni301   1.918       .  S
O297       Ni302   1.933       .  S
O298       Ni302   1.935       .  S
O299        C304   1.283       .  A
O300        C303   1.276       .  A
O300       Ni302   1.903       .  S
C303        C506   1.473       .  S
C304        C502   1.473       .  S
C305        C493   1.473       .  S
C306        C490   1.481       .  S
O307        C317   1.279       .  A
O307       Ni315   1.907       .  S
O308        C318   1.278       .  A
O308       Ni315   1.909       .  S
O309        C319   1.283       .  A
O309       Ni315   1.924       .  S
O310        C320   1.284       .  A
O310       Ni315   1.923       .  S
O311        C320   1.280       .  A
O311       Ni316   1.920       .  S
O312        C319   1.279       .  A
O312       Ni316   1.913       .  S
O313        C318   1.285       .  A
O313       Ni316   1.938       .  S
O314        C317   1.284       .  A
O314       Ni316   1.935       .  S
Ni315      Ni316   2.388       .  S
C317        C485   1.480       .  S
C318        C481   1.476       .  S
C319        C522   1.476       .  S
C320        C518   1.482       .  S
O321       Ni329   1.914   1_556  S
O322       Ni857   1.908       .  S
O323        C597   1.285       .  A
O323       Ni329   1.932       .  S
O324        C598   1.283       .  A
O324       Ni329   1.932   1_556  S
O325        C334   1.283   1_565  A
O325       Ni330   1.922       .  S
O326        C333   1.281       .  A
O326       Ni330   1.923   1_554  S
O327        C332   1.282   1_566  A
O327       Ni330   1.916       .  S
O328        C331   1.280   1_556  A
O328       Ni858   1.915   1_455  S
Ni329       O850   1.916   1_455  S
Ni329      Ni594   2.388   1_554  S
Ni330       O856   1.916       .  S
Ni330      Ni593   2.390   1_566  S
C331        C473   1.472       .  S
C332        C469   1.475       .  S
C333        O587   1.281   1_565  A
C333        C526   1.474       .  S
C334        O588   1.279       .  A
C334        C477   1.473       .  S
O335        C873   1.278       .  A
O335       Ni343   1.910       .  S
O336        C874   1.278       .  A
O336       Ni343   1.910   1_556  S
O337        C347   1.280       .  A
O337       Ni871   1.915   1_455  S
O338        C348   1.282       .  A
O338       Ni343   1.919       .  S
O339        C348   1.280       .  A
O339       Ni872   1.918   1_554  S
O340        C347   1.282       .  A
O340       Ni344   1.917       .  S
O341        C346   1.283   1_455  A
O341       Ni344   1.928   1_556  S
O342        C345   1.283       .  A
O342       Ni344   1.928   1_655  S
Ni343       O865   1.917   1_554  S
Ni343      Ni872   2.390   1_554  S
Ni344       O867   1.913   1_455  S
Ni344      Ni871   2.390   1_455  S
C345        O863   1.279       .  A
C345        C509   1.471       .  S
C346        O864   1.280       .  A
C346        C993   1.475       .  S
C347        C461   1.474       .  S
C348        C458   1.477       .  S
O349       Ni357   1.931       .  S
O350       Ni357   1.926       .  S
O351        C361   1.276       .  A
O351       Ni357   1.908       .  S
O352        C362   1.279       .  A
O352       Ni357   1.906   1_554  S
O353       Ni358   1.924   1_554  S
O354       Ni358   1.920       .  S
O355        C360   1.280   1_556  A
O355       Ni358   1.914       .  S
O356        C359   1.281   1_565  A
O356       Ni358   1.913   1_554  S
C359        C474   1.473       .  S
C360        C470   1.473       .  S
C361        C453   1.476       .  S
C362        C494   1.478       .  S
O363        C373   1.280       .  A
O363       Ni371   1.914       .  S
O364        C374   1.282       .  A
O364       Ni371   1.920       .  S
O365        C375   1.285       .  A
O365       Ni371   1.929   1_556  S
O366        C376   1.283       .  A
O366       Ni371   1.928       .  S
O367        C376   1.280       .  A
O367       Ni372   1.914       .  S
O368        C375   1.279       .  A
O368       Ni372   1.917   1_556  S
O369        C374   1.281       .  A
O369       Ni372   1.918       .  S
O370        C373   1.282       .  A
O370       Ni372   1.917       .  S
Ni371      Ni372   2.389       .  S
C373        C462   1.473       .  S
C374        C457   1.477       .  S
C375        C449   1.479       .  S
C376        C486   1.473       .  S
O377        C915   1.281   1_455  A
O378        C916   1.281       .  A
O378       Ni385   1.920       .  S
O379        C917   1.283   1_455  A
O379       Ni385   1.927       .  S
O380        C918   1.282   1_455  A
O380       Ni385   1.925       .  S
O381       Ni386   1.911       .  S
O382       Ni386   1.913       .  S
O383        C388   1.281       .  A
O384        C387   1.283       .  A
O384       Ni386   1.920       .  S
Ni385      Ni650   2.390   1_455  S
Ni386      Ni649   2.390   1_565  S
C387        O905   1.278       .  A
C387        C441   1.474       .  S
C388        O906   1.282       .  A
C388        C446   1.480       .  S
C389        O907   1.280       .  A
C390        O908   1.279       .  A
C390        C513   1.478       .  S
O391        C929   1.281   1_455  A
O391       Ni399   1.913       .  S
O392        C930   1.278   1_455  A
O392       Ni399   1.908       .  S
O393        C931   1.282       .  A
O393       Ni399   1.929       .  S
O394        C932   1.285   1_455  A
O394       Ni399   1.928       .  S
O395        C404   1.281       .  A
O395       Ni400   1.921       .  S
O396        C403   1.283       .  A
O396       Ni400   1.922       .  S
O397        C402   1.278       .  A
O397       Ni400   1.906       .  S
O398        C401   1.279       .  A
O398       Ni400   1.909       .  S
Ni399      Ni928   2.390   1_455  S
Ni400      Ni927   2.390       .  S
C401        O919   1.283       .  A
C401        C445   1.474       .  S
C402        O920   1.284       .  A
C402        C442   1.472       .  S
C403        O921   1.280       .  A
C403        C466   1.476       .  S
C404        O922   1.282       .  A
C404        C497   1.477       .  S
O405        C415   1.286       .  A
O405       Ni413   1.938       .  S
O406        C416   1.287       .  A
O406       Ni413   1.940       .  S
O407        C417   1.282       .  A
O408        C418   1.277       .  A
O408       Ni413   1.906       .  S
O409        C418   1.287       .  A
O410        C417   1.281       .  A
O410       Ni414   1.908       .  S
O411       Ni414   1.919       .  S
O412       Ni414   1.922       .  S
C415        C489   1.473       .  S
C416        C454   1.477       .  S
C417        C433   1.479       .  S
C418        C437   1.481       .  S
O419        C429   1.279       .  A
O419       Ni427   1.916       .  S
O420        C430   1.279       .  A
O420       Ni427   1.910       .  S
O421        C431   1.284       .  A
O421       Ni427   1.933       .  S
O422        C432   1.285       .  A
O422       Ni427   1.933       .  S
O423        C432   1.278       .  A
O423       Ni428   1.912       .  S
O424        C431   1.281       .  A
O424       Ni428   1.913       .  S
O425        C430   1.283       .  A
O425       Ni428   1.926       .  S
O426        C429   1.286       .  A
O426       Ni428   1.931       .  S
Ni427      Ni428   2.388       .  S
C429        C438   1.484       .  S
C430        C434   1.473       .  S
C431        C482   1.485       .  S
C432        C450   1.478       .  S
C433        C434   1.345       .  D
C433        H435   1.086       .  S
C434        H436   1.087       .  S
C437        C438   1.342       .  D
C437        H439   1.087       .  S
C438        H440   1.086       .  S
C441        C442   1.341       .  D
C441        H443   1.086       .  S
C442        H972   1.086       .  S
H444        C970   1.086       .  S
C445        C446   1.345       .  D
C445        H447   1.087       .  S
C446        H976   1.086       .  S
H448        C974   1.086       .  S
C449        C450   1.341       .  D
C449        H451   1.087       .  S
C450        H452   1.087       .  S
C453        C454   1.337       .  D
C453        H455   1.086       .  S
C457        C458   1.345       .  D
C457        H459   1.086       .  S
C458        H460   1.086       .  S
C461        C462   1.343       .  D
C461        H463   1.086       .  S
C462        H464   1.086       .  S
C465        C874   1.472       .  S
C465        C466   1.341       .  D
C465        H995   1.087       .  S
C466        H468   1.087       .  S
H467        C993   1.087       .  S
C469        C470   1.344   1_545  D
C470        H472   1.086   1_554  S
C473        C474   1.344   1_565  D
C474        H476   1.086       .  S
C477        C478   1.341   1_545  D
C478       H1008   1.087       .  S
H480       C1006   1.087       .  S
C481        C482   1.346       .  D
C481        H483   1.087       .  S
C482        H484   1.086       .  S
C485        C486   1.346       .  D
C485        H487   1.087       .  S
C486        H488   1.087       .  S
C489        C490   1.343       .  D
C489        H491   1.087       .  S
C493        C494   1.345       .  D
C494        H496   1.087       .  S
C497       C1026   1.344       .  D
C497        H499   1.087       .  S
C498       C1025   1.339       .  D
C498        H500   1.087   1_655  S
C501        C502   1.342       .  D
C501        H503   1.086       .  S
C502        H504   1.086       .  S
C505        C506   1.339       .  D
C505        H507   1.086       .  S
C506        H508   1.086       .  S
C509        C510   1.346       .  D
C509        H511   1.087       .  S
C510       H1040   1.086       .  S
H512       C1038   1.087       .  S
C513        C514   1.344       .  D
C513        H515   1.087       .  S
C514        H780   1.087       .  S
H516        C778   1.087       .  S
C517        C518   1.343       .  D
C517        H519   1.086       .  S
C518        H520   1.086       .  S
C521        C522   1.343       .  D
C521        H523   1.086       .  S
C522        H524   1.086       .  S
C525        C806   1.471       .  S
C525        C526   1.341   1_545  D
C525        H791   1.087       .  S
C526        H528   1.086       .  S
H527        C789   1.087       .  S
O529        C539   1.280       .  A
O530        C540   1.278       .  A
O530       Ni801   1.909   1_545  S
O531       Ni537   1.925       .  S
O532        C542   1.283       .  A
O532       Ni537   1.924       .  S
O533       Ni538   1.912       .  S
O534        C805   1.281   1_645  A
O534       Ni538   1.918       .  S
O535        C540   1.286       .  A
O536        C539   1.284       .  A
O536       Ni802   1.927       .  S
Ni537       O794   1.913       .  S
Ni538       O800   1.925   1_545  S
C539        C781   1.485       .  S
C540        C785   1.478       .  S
C541        O798   1.279   1_455  A
C541       C1042   1.478       .  S
O543        C553   1.282       .  A
O544        C554   1.279       .  A
O544       Ni551   1.915       .  S
O545        C555   1.281       .  A
O545       Ni551   1.920       .  S
O546        C556   1.281       .  A
O546       Ni551   1.920       .  S
O547       Ni552   1.924       .  S
O548       Ni552   1.923       .  S
O549        C554   1.283       .  A
O550        C553   1.279       .  A
O550       Ni552   1.909       .  S
C553        C765   1.474       .  S
C554        C769   1.477       .  S
C555        C762   1.475       .  S
C556        C774   1.477       .  S
O557        C567   1.279       .  A
O557       Ni829   1.911       .  S
O558        C568   1.283       .  A
O558       Ni565   1.926       .  S
O559        C569   1.278       .  A
O559       Ni565   1.910       .  S
O560        C570   1.277       .  A
O560       Ni565   1.909       .  S
O561        C834   1.283       .  A
O561       Ni566   1.928       .  S
O562        C833   1.283       .  A
O562       Ni566   1.929       .  S
O563        C568   1.279       .  A
O563       Ni830   1.907   1_545  S
O564        C567   1.284       .  A
O564       Ni566   1.926       .  S
Ni565       O821   1.926   1_545  S
Ni565      Ni830   2.390   1_545  S
Ni566       O827   1.926       .  S
Ni566      Ni829   2.389       .  S
C567        C770   1.475       .  S
C568        C766   1.475       .  S
C569        O826   1.283   1_545  A
C569        C757   1.471       .  S
C570        O825   1.285   1_545  A
C570        C754   1.473       .  S
O571        C581   1.277       .  A
O571       Ni579   1.904       .  S
O572        C582   1.280       .  A
O572       Ni579   1.910       .  S
O573        C583   1.286       .  A
O573       Ni579   1.931       .  S
O574        C584   1.286       .  A
O574       Ni579   1.938       .  S
O575        C584   1.278       .  A
O575       Ni580   1.911       .  S
O576        C583   1.278       .  A
O576       Ni580   1.911       .  S
O577        C582   1.283       .  A
O577       Ni580   1.930       .  S
O578        C581   1.284       .  A
O578       Ni580   1.931       .  S
Ni579      Ni580   2.389       .  S
C581        C749   1.470       .  S
C582        C745   1.479       .  S
C583        C786   1.479       .  S
C584        C782   1.481       .  S
O585        C859   1.282   1_545  A
O585       Ni593   1.915       .  S
O586        C860   1.280       .  A
O587       Ni593   1.913       .  S
O588       Ni593   1.915   1_556  S
O589        C598   1.280       .  A
O589       Ni594   1.910       .  S
O590        C597   1.278       .  A
O590       Ni594   1.913   1_554  S
O591        C596   1.285       .  A
O591       Ni594   1.933   1_655  S
O592        C595   1.285   1_556  A
C595        O849   1.279       .  A
C595        C737   1.481       .  S
C596        O850   1.279   1_556  A
C596        C733   1.483   1_556  S
C597        C790   1.477       .  S
C598        C741   1.479       .  S
O599       Ni607   1.920       .  S
O600       Ni607   1.921   1_556  S
O601        C611   1.278       .  A
O602        C612   1.283   1_554  A
O602       Ni607   1.922       .  S
O603        C612   1.279       .  A
O604        C611   1.282       .  A
O604       Ni608   1.922   1_554  S
O605        C610   1.279       .  A
O605       Ni608   1.913       .  S
O606        C609   1.279       .  A
O606       Ni608   1.915   1_554  S
C609        C773   1.475       .  S
C611        C725   1.470       .  S
C612        C722   1.474   1_556  S
O613        C887   1.280       .  A
O613       Ni621   1.914       .  S
O614        C888   1.281   1_545  A
O614       Ni621   1.913       .  S
O615        C625   1.279       .  A
O615       Ni621   1.912   1_556  S
O616        C626   1.281   1_545  A
O616       Ni621   1.911       .  S
O617        C890   1.284       .  A
O617       Ni622   1.934   1_554  S
O618        C889   1.285       .  A
O618       Ni622   1.934       .  S
O619        C624   1.280       .  A
O619       Ni622   1.917       .  S
O620        C623   1.278       .  A
O620       Ni622   1.912       .  S
Ni621      Ni886   2.390   1_545  S
Ni622      Ni885   2.388   1_556  S
C623        O877   1.285   1_556  A
C623        C738   1.480       .  S
C624        O878   1.285   1_556  A
C624        C734   1.484       .  S
C625        O882   1.283   1_545  A
C625        C717   1.473       .  S
C626        O881   1.282       .  A
C626        C758   1.477       .  S
O627        C637   1.280   1_556  A
O627       Ni635   1.918       .  S
O628        C638   1.283       .  A
O628       Ni635   1.920   1_554  S
O629        C639   1.283       .  A
O629       Ni635   1.919       .  S
O630        C640   1.280       .  A
O630       Ni635   1.920   1_554  S
O631        C640   1.282       .  A
O631       Ni636   1.917       .  S
O632        C639   1.280       .  A
O632       Ni636   1.920   1_556  S
O633        C638   1.280       .  A
O633       Ni636   1.916       .  S
O634        C637   1.282       .  A
O634       Ni636   1.911       .  S
Ni635      Ni636   2.389   1_556  S
C637        C726   1.474       .  S
C638        C721   1.476       .  S
C639        C713   1.478       .  S
C640        C750   1.475       .  S
O641       Ni913   1.928       .  S
O642       Ni649   1.913       .  S
O643       Ni649   1.922       .  S
O644       Ni649   1.923       .  S
O645        C918   1.280       .  A
O645       Ni650   1.915       .  S
O646        C917   1.280       .  A
O646       Ni650   1.915       .  S
O647        C652   1.282   1_655  A
O647       Ni914   1.919   1_545  S
O648        C651   1.280       .  A
O648       Ni650   1.913       .  S
Ni649       O905   1.912   1_545  S
Ni650       O911   1.915       .  S
C651        C705   1.472       .  S
C652        C710   1.476       .  S
C653        O910   1.280   1_545  A
C653       C1006   1.478   1_545  S
C654        O909   1.281   1_545  A
C654        C777   1.479   1_545  S
O655       Ni663   1.908       .  S
O656       Ni663   1.909       .  S
O657       Ni663   1.926       .  S
O658       Ni663   1.927       .  S
O659        C668   1.281       .  A
O659       Ni664   1.920       .  S
O660        C667   1.282   1_655  A
O660       Ni664   1.920       .  S
O661        C666   1.281   1_655  A
O661       Ni664   1.912       .  S
O662        C665   1.279       .  A
O662       Ni664   1.913       .  S
C665        C709   1.475       .  S
C666        C706   1.474       .  S
C667        C730   1.474       .  S
C668        C761   1.475       .  S
O669        C679   1.280       .  A
O669       Ni677   1.917       .  S
O670        C680   1.282   1_545  A
O670       Ni677   1.917       .  S
O671        C681   1.278       .  A
O671       Ni941   1.909       .  S
O672        C682   1.283       .  A
O672       Ni677   1.925       .  S
O673        C682   1.280       .  A
O673       Ni942   1.914   1_545  S
O674        C681   1.283       .  A
O674       Ni678   1.916       .  S
O675        C944   1.280       .  A
O675       Ni678   1.919       .  S
O676        C943   1.282       .  A
O676       Ni678   1.919       .  S
Ni677       O935   1.919   1_545  S
Ni677      Ni942   2.390   1_545  S
Ni678       O937   1.923       .  S
Ni678      Ni941   2.389       .  S
C679        O940   1.283   1_545  A
C679        C753   1.476       .  S
C680        O939   1.281       .  A
C680        C718   1.476       .  S
C681        C697   1.470       .  S
C682        C701   1.476       .  S
O683        C693   1.281       .  A
O683       Ni691   1.914       .  S
O684        C694   1.277       .  A
O684       Ni691   1.905       .  S
O685        C695   1.284       .  A
O685       Ni691   1.930       .  S
O686        C696   1.285       .  A
O686       Ni691   1.932       .  S
O687        C696   1.278       .  A
O687       Ni692   1.908       .  S
O688        C695   1.277       .  A
O688       Ni692   1.909       .  S
O689        C694   1.283       .  A
O689       Ni692   1.921       .  S
O690        C693   1.282       .  A
O690       Ni692   1.924       .  S
Ni691      Ni692   2.390       .  S
C693        C702   1.480       .  S
C694        C698   1.469       .  S
C695        C746   1.470       .  S
C696        C714   1.475       .  S
C697        C698   1.340       .  D
C697        H699   1.086       .  S
C698        H700   1.087       .  S
C701        C702   1.346       .  D
C701        H703   1.087       .  S
C702        H704   1.086       .  S
C705        C706   1.344   1_655  D
C705        H707   1.086       .  S
C709        C710   1.343   1_655  D
C709        H711   1.086       .  S
C713        C714   1.342       .  D
C713        H715   1.086       .  S
C714        H716   1.087       .  S
C717        C718   1.342   1_545  D
C717        H719   1.087       .  S
C718        H984   1.087       .  S
H720        C982   1.087       .  S
C721        C722   1.343       .  D
C721        H723   1.086       .  S
C722        H724   1.086   1_554  S
C725        C726   1.343       .  D
C725        H727   1.086       .  S
C726        H728   1.086   1_554  S
C729        C730   1.343   1_655  D
C730        H732   1.087       .  S
C733        C734   1.344   1_554  D
C733        H999   1.086       .  S
C734        H736   1.086       .  S
H735        C997   1.086       .  S
C737        C738   1.342   1_554  D
C737       H1003   1.086       .  S
C738        H740   1.086       .  S
H739       C1001   1.086   1_556  S
C741        C742   1.345   1_455  D
C741       H1007   1.087       .  S
C742        C917   1.474       .  S
H743       C1005   1.086       .  S
C745        C746   1.344       .  D
C745        H747   1.087       .  S
C746        H748   1.086       .  S
C749        C750   1.339       .  D
C749        H751   1.087       .  S
C750        H752   1.087       .  S
C753        C754   1.340       .  D
C753        H755   1.087       .  S
C754       H1020   1.087       .  S
H756       C1018   1.087       .  S
C757        C758   1.343   1_545  D
C757       H1023   1.087       .  S
C758        H760   1.086       .  S
H759       C1021   1.087       .  S
C761        H763   1.087       .  S
C762        H764   1.087       .  S
C765        C766   1.348       .  D
C765        H767   1.086       .  S
C766        H768   1.086       .  S
C769        C770   1.343       .  D
C769        H771   1.086       .  S
C770        H772   1.086       .  S
C773        C774   1.343       .  D
C773        H775   1.087       .  S
C777        C778   1.346   1_655  D
C777        H779   1.087   1_565  S
C778        C805   1.482       .  S
C781        C782   1.345       .  D
C781        H783   1.086       .  S
C782        H784   1.086       .  S
C785        C786   1.341       .  D
C785        H787   1.086       .  S
C786        H788   1.086       .  S
C789        C790   1.340       .  D
C790        H792   1.086       .  S
O793        C803   1.279       .  A
O794        C804   1.281       .  A
O795       Ni801   1.928       .  S
O796        C806   1.283   1_565  A
O796       Ni801   1.928       .  S
O797       Ni802   1.910       .  S
O798       Ni802   1.906       .  S
O799        C804   1.282       .  A
O800        C803   1.283       .  A
C803       C1045   1.474       .  S
C804       C1049   1.479       .  S
O807        C817   1.284       .  A
O808        C818   1.281       .  A
O808       Ni815   1.910       .  S
O809        C819   1.281       .  A
O809       Ni815   1.920       .  S
O810        C820   1.282       .  A
O810       Ni815   1.918       .  S
O811       Ni816   1.936       .  S
O812       Ni816   1.936       .  S
O813        C818   1.281       .  A
O814        C817   1.278       .  A
O814       Ni816   1.905       .  S
C817       C1029   1.474       .  S
C818       C1033   1.476       .  S
C819       C1026   1.476       .  S
C820       C1038   1.472       .  S
O821        C831   1.283       .  A
O822        C832   1.282       .  A
O822       Ni829   1.912       .  S
O823        C833   1.280       .  A
O823       Ni829   1.914       .  S
O824        C834   1.278       .  A
O824       Ni829   1.913       .  S
O825       Ni830   1.930       .  S
O826       Ni830   1.930       .  S
O827        C832   1.281       .  A
O828        C831   1.278       .  A
O828       Ni830   1.904       .  S
C831       C1034   1.470       .  S
C832       C1030   1.481       .  S
C833       C1021   1.475       .  S
C834       C1018   1.472       .  S
O835        C845   1.281       .  A
O835       Ni843   1.914       .  S
O836        C846   1.278       .  A
O836       Ni843   1.911       .  S
O837        C847   1.280       .  A
O837       Ni843   1.915       .  S
O838        C848   1.282       .  A
O838       Ni843   1.914       .  S
O839        C848   1.281       .  A
O839       Ni844   1.922       .  S
O840        C847   1.282       .  A
O840       Ni844   1.923       .  S
O841        C846   1.284       .  A
O841       Ni844   1.927       .  S
O842        C845   1.283       .  A
O842       Ni844   1.930       .  S
Ni843      Ni844   2.389       .  S
C845       C1013   1.478       .  S
C846       C1009   1.473       .  S
C847       C1050   1.475       .  S
C848       C1046   1.478       .  S
O849       Ni857   1.913       .  S
O851       Ni857   1.929       .  S
O852       Ni857   1.931   1_556  S
O853        C862   1.283   1_565  A
O853       Ni858   1.924   1_455  S
O854        C861   1.281   1_655  A
O854       Ni858   1.924   1_554  S
O855        C860   1.281   1_566  A
O855       Ni858   1.914       .  S
O856        C859   1.280   1_556  A
C859       C1001   1.473       .  S
C860        C997   1.472       .  S
C861       C1054   1.477       .  S
C862       C1005   1.476       .  S
O863       Ni871   1.913       .  S
O864       Ni871   1.914   1_556  S
O865        C875   1.280       .  A
O866        C876   1.281       .  A
O866       Ni871   1.914       .  S
O867        C876   1.280       .  A
O868        C875   1.281       .  A
O868       Ni872   1.915       .  S
O869        C874   1.284       .  A
O869       Ni872   1.927       .  S
O870        C873   1.283       .  A
O870       Ni872   1.927   1_554  S
C873       C1037   1.470       .  S
C875        C989   1.474       .  S
C876        C986   1.471       .  S
O877       Ni885   1.933       .  S
O878       Ni885   1.933       .  S
O879        C889   1.277       .  A
O879       Ni885   1.910   1_556  S
O880        C890   1.280       .  A
O880       Ni885   1.908       .  S
O881       Ni886   1.928       .  S
O882       Ni886   1.926   1_556  S
O883        C888   1.280   1_556  A
O883       Ni886   1.917   1_556  S
O884        C887   1.282   1_565  A
O884       Ni886   1.916       .  S
C887       C1002   1.472       .  S
C888        C998   1.473       .  S
C889        C981   1.476       .  S
C890       C1022   1.481       .  S
O891        C901   1.280       .  A
O891       Ni899   1.915       .  S
O892        C902   1.281       .  A
O892       Ni899   1.913       .  S
O893        C903   1.283       .  A
O893       Ni899   1.926       .  S
O894        C904   1.283       .  A
O894       Ni899   1.927   1_554  S
O895        C904   1.280       .  A
O895       Ni900   1.915   1_554  S
O896        C903   1.280       .  A
O896       Ni900   1.914       .  S
O897        C902   1.280       .  A
O897       Ni900   1.915       .  S
O898        C901   1.282       .  A
O898       Ni900   1.916       .  S
Ni899      Ni900   2.390       .  S
C901        C990   1.473       .  S
C902        C985   1.471   1_556  S
C903        C977   1.474       .  S
C904       C1014   1.474       .  S
O906       Ni913   1.927       .  S
O907       Ni913   1.918       .  S
O908       Ni913   1.915       .  S
O909       Ni914   1.919       .  S
O910       Ni914   1.917       .  S
O911        C916   1.281   1_655  A
O912        C915   1.280       .  A
O912       Ni914   1.918       .  S
C915        C969   1.472       .  S
C916        C974   1.476       .  S
C918       C1041   1.473       .  S
O919       Ni927   1.928       .  S
O920       Ni927   1.925       .  S
O921       Ni927   1.916       .  S
O922       Ni927   1.919       .  S
O923        C932   1.278       .  A
O923       Ni928   1.913       .  S
O924        C931   1.281   1_655  A
O924       Ni928   1.914       .  S
O925        C930   1.282       .  A
O925       Ni928   1.919       .  S
O926        C929   1.282       .  A
O926       Ni928   1.922       .  S
C929        C973   1.476       .  S
C930        C970   1.469   1_655  S
C931        C994   1.479       .  S
C932       C1025   1.478       .  S
O933        C943   1.281       .  A
O933       Ni941   1.921       .  S
O934        C944   1.284       .  A
O934       Ni941   1.924       .  S
O935        C945   1.281       .  A
O936        C946   1.282       .  A
O936       Ni941   1.917       .  S
O937        C946   1.281       .  A
O938        C945   1.280       .  A
O938       Ni942   1.911       .  S
O939       Ni942   1.920       .  S
O940       Ni942   1.922       .  S
C943       C1017   1.476       .  S
C944        C982   1.481       .  S
C945        C961   1.473       .  S
C946        C965   1.480       .  S
O947        C957   1.283       .  A
O947       Ni955   1.927       .  S
O948        C958   1.282       .  A
O948       Ni955   1.922       .  S
O949        C959   1.279       .  A
O949       Ni955   1.915       .  S
O950        C960   1.281       .  A
O950       Ni955   1.914       .  S
O951        C960   1.282       .  A
O951       Ni956   1.924       .  S
O952        C959   1.283       .  A
O952       Ni956   1.924       .  S
O953        C958   1.280       .  A
O953       Ni956   1.910       .  S
O954        C957   1.279       .  A
O954       Ni956   1.913       .  S
Ni955      Ni956   2.390       .  S
C957        C966   1.477       .  S
C958        C962   1.473       .  S
C959       C1010   1.475       .  S
C960        C978   1.477       .  S
C961        C962   1.345       .  D
C961        H963   1.086       .  S
C962        H964   1.086       .  S
C965        C966   1.345       .  D
C965        H967   1.086       .  S
C966        H968   1.086       .  S
C969        C970   1.342   1_655  D
C969        H971   1.086       .  S
C973        C974   1.346   1_655  D
C973        H975   1.086       .  S
C977        C978   1.344       .  D
C977        H979   1.087       .  S
C978        H980   1.087       .  S
C981        C982   1.342       .  D
C981        H983   1.086       .  S
C985        C986   1.343       .  D
C985        H987   1.086       .  S
C986        H988   1.086   1_554  S
C989        C990   1.344       .  D
C989        H991   1.086       .  S
C990        H992   1.086       .  S
C993        C994   1.344   1_655  D
C994        H996   1.086       .  S
C997        C998   1.344   1_545  D
C998       H1000   1.086   1_554  S
C1001      C1002   1.343   1_565  D
C1002      H1004   1.086       .  S
C1005      C1006   1.343   1_445  D
C1009      C1010   1.340       .  D
C1009      H1011   1.087       .  S
C1010      H1012   1.087       .  S
C1013      C1014   1.344       .  D
C1013      H1015   1.086       .  S
C1014      H1016   1.087       .  S
C1017      C1018   1.341       .  D
C1017      H1019   1.087       .  S
C1021      C1022   1.346       .  D
C1022      H1024   1.086       .  S
C1025      H1027   1.087       .  S
C1026      H1028   1.087       .  S
C1029      C1030   1.344       .  D
C1029      H1031   1.087       .  S
C1030      H1032   1.086       .  S
C1033      C1034   1.342       .  D
C1033      H1035   1.086       .  S
C1034      H1036   1.086       .  S
C1037      C1038   1.339       .  D
C1037      H1039   1.087       .  S
C1041      C1042   1.346   1_655  D
C1041      H1043   1.087       .  S
C1045      C1046   1.344       .  D
C1045      H1047   1.086       .  S
C1046      H1048   1.086       .  S
C1049      C1050   1.346       .  D
C1049      H1051   1.086       .  S
C1050      H1052   1.086       .  S
C1053      C1054   1.342   1_545  D
C1054      H1056   1.087       .  S
