geometry optimzed in LAMMPS
_audit_creation_date              2020-12-01 
_audit_creation_method            'lammps2cif' 
_symmetry_space_group_name_H-M    'P1' 
_symmetry_Int_Tables_number       1 
_symmetry_cell_setting            triclinic 
loop_ 
_symmetry_equiv_pos_as_xyz 
  x,y,z 
_cell_length_a                    45.12552012 
_cell_length_b                    45.113589313894636 
_cell_length_c                    36.76261664709273 
_cell_angle_alpha                 90.09423432132195 
_cell_angle_beta                  90.09992508484765 
_cell_angle_gamma                 120.18032470232704 
loop_ 
_atom_site_label 
_atom_site_type_symbol 
_atom_site_fract_x 
_atom_site_fract_y 
_atom_site_fract_z 
_atom_site_charge 
C1          C  0.01899893  0.48196677  0.12677460     0.80900
N2          N  0.03631921  0.01690038  0.12652100    -0.77400
C3          C  0.01894742  0.03435004  0.12647837     0.83400
N4          N  0.48405224  0.01661211  0.12656865    -0.77300
C5          C  0.46646540  0.48171128  0.12680936     0.83500
N6          N  0.48407173  0.46450868  0.12690151    -0.79000
C7          C  0.15026108  0.34999696  0.12259394     0.80900
N8          N  0.13279528  0.31524877  0.12212323    -0.77400
C9          C  0.15001412  0.29780964  0.12203746     0.83400
N10         N  0.18479266  0.31517520  0.12262423    -0.77300
C11         C  0.20231969  0.34996240  0.12314564     0.83500
N12         N  0.18501518  0.36733778  0.12310453    -0.79000
C13         C  0.34758914  0.32405147  0.06049821     0.03800
C14         C  0.35601625  0.33070111  0.02348381    -0.12300
C15         C  0.36028535  0.30728695  0.50215199     0.01300
C16         C  0.35397588  0.27603391  0.01792825    -0.10800
C17         C  0.34511797  0.26902406  0.05473042     0.03800
C18         C  0.34259594  0.29367346  0.07591099    -0.10300
H19         H  0.36048941  0.35464466  0.51179695     0.09400
H20         H  0.35690259  0.25751072  0.50188116     0.07000
H21         H  0.33583875  0.28903248  0.10444311     0.06800
Zn22       Zn  0.03766904  0.39687571  0.10676251     1.49700
Zn23       Zn  0.11483585  0.41638267  0.08909325     1.49400
Zn24       Zn  0.10414274  0.46265834  0.14393713     1.49100
Zn25       Zn  0.08473704  0.38500675  0.16014111     1.49500
O26         O  0.08435496  0.41614885  0.12511591    -1.83400
O27         O  0.03447187  0.37849474  0.05432296    -0.74000
O28         O  0.14371877  0.46215658  0.06729806    -0.73900
O29         O  0.06722823  0.47630402  0.14203321    -0.73400
O30         O  0.08758454  0.38799021  0.04866390    -0.74100
O31         O  0.02446009  0.43394511  0.11038258    -0.73700
O32         O  0.14195251  0.49628688  0.10980218    -0.74200
O33         O  0.11400986  0.41150015  0.20099648    -0.73600
O34         O  0.14383795  0.39702565  0.10651011    -0.74400
O35         O  0.12329312  0.46465410  0.19568210    -0.73800
O36         O  0.10362060  0.35626865  0.14056715    -0.74200
O37         O  0.03887969  0.35550488  0.18182554    -0.74200
O38         O  0.00445604  0.35861322  0.14056576    -0.73900
C39         C  0.05745811  0.37609196  0.03630681     0.77800
C40         C  0.15283833  0.49183107  0.07939956     0.78300
C41         C  0.03791328  0.46308211  0.12640805     0.77300
C42         C  0.12604301  0.44168018  0.21338673     0.77700
C43         C  0.13166873  0.36865247  0.12320737     0.78800
C44         C  0.00913404  0.34691212  0.17029001     0.77900
C45         C  0.17679347  0.02147737  0.05756993     0.03800
C46         C  0.20738163  0.04655368  0.07326566    -0.12300
C47         C  0.23141388  0.07489722  0.05301700     0.01300
C48         C  0.22367219  0.07814338  0.01677692    -0.10800
C49         C  0.19235443  0.05334628  0.50065162     0.03800
C50         C  0.16947953  0.02451786  0.02104785    -0.10300
H51         H  0.21247869  0.04351793  0.10142573     0.09400
H52         H  0.24169492  0.10048113  0.50145918     0.07000
H53         H  0.14539125  0.50526366  0.50917468     0.06800
C54         C  0.47960702  0.32332569  0.19240850     0.03800
C55         C  0.47670317  0.33180130  0.22863947    -0.12300
C56         C  0.44734713  0.31016289  0.24902775     0.01300
C57         C  0.42167393  0.27941754  0.23304634    -0.10800
C58         C  0.42508559  0.27042271  0.19762523     0.03800
C59         C  0.45398210  0.29255064  0.17722051    -0.08700
H60         H  0.99646154  0.35579138  0.24021362     0.09400
H61         H  0.39874170  0.26218817  0.24807257     0.07000
H62         H  0.45632883  0.28604850  0.14937144     0.06800
Zn63       Zn  0.29634631  0.12437940  0.14560702     1.49700
Zn64       Zn  0.32887685  0.20331476  0.14598622     1.49400
Zn65       Zn  0.37536903  0.17136579  0.14520549     1.49100
Zn66       Zn  0.33338130  0.16644194  0.07217122     1.49500
O67         O  0.33335567  0.16624820  0.12621732    -1.83400
O68         O  0.26514456  0.13228050  0.17868108    -0.74000
O69         O  0.36719388  0.23339275  0.18071315    -0.73900
O70         O  0.36804568  0.13377801  0.18031302    -0.73400
O71         O  0.28236581  0.18695383  0.16718299    -0.74100
O72         O  0.31347352  0.09544920  0.16875916    -0.73700
O73         O  0.40551257  0.21814392  0.16628710    -0.74200
O74         O  0.37241438  0.15881792  0.05306701    -0.73600
O75         O  0.33428696  0.23456710  0.10634638    -0.74400
O76         O  0.40044204  0.16545997  0.10486783    -0.73800
O77         O  0.34071247  0.21326143  0.05437329    -0.74200
O78         O  0.28661977  0.12708153  0.05390709    -0.74200
O79         O  0.26583988  0.09782611  0.10515439    -0.73900
C80         C  0.26067528  0.15798017  0.18021384     0.77800
C81         C  0.39776000  0.23881899  0.18106828     0.78300
C82         C  0.34253055  0.10342554  0.18228084     0.77300
C83         C  0.39733768  0.15983201  0.07083865     0.77700
C84         C  0.33963340  0.23706132  0.07233775     0.78800
C85         C  0.26320620  0.10138372  0.07125392     0.77900
Zn86       Zn  0.30320617  0.41781311  0.15952372     1.49700
Zn87       Zn  0.36267672  0.46244927  0.10525156     1.49400
Zn88       Zn  0.36128320  0.39761972  0.14635815     1.49100
Zn89       Zn  0.30389249  0.38513919  0.09073759     1.49500
O90         O  0.33483994  0.41683433  0.12576874    -1.83400
O91         O  0.32024025  0.46473610  0.17795017    -0.74000
O92         O  0.41294580  0.47516263  0.10852198    -0.73900
O93         O  0.34313484  0.37991205  0.19857570    -0.73400
O94         O  0.35938117  0.49783874  0.13727725    -0.74100
O95         O  0.30004824  0.39046591  0.20254345    -0.73700
O96         O  0.41225660  0.43460280  0.14412734    -0.74200
O97         O  0.32140630  0.35681082  0.07002177    -0.73600
O98         O  0.34569335  0.46306019  0.05308101    -0.74400
O99         O  0.35709601  0.35896717  0.11308106    -0.73800
O100        O  0.30064994  0.41032040  0.04930419    -0.74200
O101        O  0.25602892  0.35566155  0.10947912    -0.74200
O102        O  0.25546976  0.39794993  0.13939139    -0.73900
C103        C  0.34240404  0.49406852  0.16632494     0.77800
C104        C  0.42854274  0.46276435  0.12646413     0.78300
C105        C  0.31759721  0.37820947  0.21584447     0.77300
C106        C  0.34191781  0.34790679  0.08248684     0.77700
C107        C  0.31925639  0.43998611  0.03607360     0.78800
C108        C  0.23971160  0.36871897  0.12407209     0.77900
C109        C  0.34920556  0.02378182  0.18858886     0.03800
C110        C  0.34303448  0.04916941  0.17512659    -0.12300
C111        C  0.34747884  0.07623810  0.19771595     0.01300
C112        C  0.35811177  0.07771855  0.23387405    -0.10800
C113        C  0.36417355  0.05214167  0.24752593     0.03800
C114        C  0.35988627  0.02539541  0.22476792    -0.10300
H115        H  0.33472666  0.04783384  0.14717085     0.09400
H116        H  0.36209871  0.09891652  0.25116106     0.07000
H117        H  0.36466830  0.50573144  0.23525103     0.06800
C118        C  0.17597742  0.15465885  0.19001453     0.03800
C119        C  0.16795237  0.14453345  0.22659521    -0.12300
C120        C  0.18993786  0.13794190  0.24770667     0.01300
C121        C  0.22060040  0.14283448  0.23205749    -0.10800
C122        C  0.22906929  0.15380813  0.19619994     0.03800
C123        C  0.20658889  0.15947424  0.17504727    -0.10300
H124        H  0.14406701  0.14049756  0.23799179     0.09400
H125        H  0.23812609  0.13796062  0.24762328     0.07000
H126        H  0.21282775  0.16746778  0.14695833     0.06800
Zn127      Zn  0.11432433  0.19756519  0.15845998     1.49700
Zn128      Zn  0.08133363  0.19604927  0.08907282     1.49400
Zn129      Zn  0.10231956  0.13914680  0.10422987     1.49100
Zn130      Zn  0.03729751  0.13833313  0.14447058     1.49500
O131        O  0.08276752  0.16566217  0.12390792    -1.83400
O132        O  0.14402876  0.24442883  0.13764834    -0.74000
O133        O  0.10808432  0.19768335  0.04671773    -0.73900
O134        O  0.14164784  0.14513908  0.13722011    -0.73400
O135        O  0.10163939  0.24442081  0.10731911    -0.74100
O136        O  0.14276212  0.18043705  0.18023422    -0.73700
O137        O  0.11923865  0.15511207  0.05135614    -0.74200
O138        O  0.02496635  0.08809411  0.14294607    -0.73600
O139        O  0.03460418  0.17857009  0.07009125    -0.74400
O140        O  0.06587210  0.08826731  0.10837371    -0.73800
O141        O  0.00174364  0.14053030  0.11169213    -0.74200
O142        O  0.03686390  0.15705915  0.19576662    -0.74200
O143        O  0.08924559  0.20277190  0.19922347    -0.73900
C144        C  0.13105906  0.26044547  0.12220137     0.77800
C145        C  0.12039838  0.18014637  0.03363793     0.78300
C146        C  0.15237956  0.16044105  0.16778202     0.77300
C147        C  0.03767422  0.07225733  0.12598865     0.77700
C148        C  0.00534725  0.15669722  0.08206747     0.78800
C149        C  0.05953348  0.18409271  0.21235695     0.77900
C150        C  0.47544020  0.15020919  0.06031362     0.03800
C151        C  0.47340918  0.14071207  0.02376641    -0.12300
C152        C  0.44677947  0.13772461  0.50166958     0.01300
C153        C  0.42199132  0.14473514  0.01627198    -0.10800
C154        C  0.42354430  0.15381616  0.05324484     0.03800
C155        C  0.45049230  0.15622037  0.07496148    -0.10300
H156        H  0.99263452  0.13566446  0.51247765     0.09400
H157        H  0.40108798  0.14195902  0.49929474     0.07000
H158        H  0.45281585  0.16366188  0.10333764     0.06800
C159        C  0.48321094  0.01706065  0.37653741     0.80900
N160        N  0.01799743  0.03422272  0.37444542    -0.77400
C161        C  0.03540102  0.01683453  0.37502380     0.83400
N162        N  0.01766557  0.48195438  0.37660729    -0.77300
C163        C  0.48278159  0.46451819  0.37817781     0.83500
N164        N  0.46569758  0.48223976  0.37860956    -0.79000
Zn165      Zn  0.14027181  0.03759043  0.39380972     1.49700
Zn166      Zn  0.19789503  0.11549963  0.40954320     1.49400
Zn167      Zn  0.19697274  0.08372358  0.33882683     1.49100
Zn168      Zn  0.13900710  0.10227814  0.35455192     1.49500
O169        O  0.16655438  0.08387565  0.37448015    -1.83400
O170        O  0.15748248  0.03639377  0.44603424    -0.74000
O171        O  0.24572588  0.14370216  0.39005265    -0.73900
O172        O  0.18002133  0.03817500  0.31715577    -0.73400
O173        O  0.20065270  0.09003162  0.45159212    -0.74100
O174        O  0.14516485  0.00400663  0.36020679    -0.73700
O175        O  0.24483366  0.10217387  0.35703318    -0.74200
O176        O  0.15456965  0.11992986  0.30187414    -0.73600
O177        O  0.18110204  0.14517982  0.42932824    -0.74400
O178        O  0.19930048  0.11213582  0.29803999    -0.73800
O179        O  0.14332072  0.14085152  0.38759146    -0.74200
O180        O  0.08881386  0.06461815  0.35788271    -0.74200
O181        O  0.08950246  0.02332392  0.39096448    -0.73900
C182        C  0.18295045  0.05982229  0.46397764     0.77800
C183        C  0.26123947  0.13084477  0.37325520     0.78300
C184        C  0.16019148  0.00852325  0.32959998     0.77300
C185        C  0.18065555  0.12302067  0.28467705     0.77700
C186        C  0.15969808  0.15317733  0.41731734     0.78800
C187        C  0.07325591  0.03583926  0.37446509     0.77900
C188        C  0.15326608  0.17647918  0.43931266     0.03800
C189        C  0.15813463  0.20714842  0.42443531    -0.12300
C190        C  0.15188661  0.22931993  0.44545805     0.01300
C191        C  0.14008099  0.22036807  0.48106384    -0.10800
C192        C  0.13525676  0.18967830  0.99663456     0.03800
C193        C  0.14250246  0.16807998  0.47565904    -0.10300
H194        H  0.16666114  0.21368821  0.39652971     0.09400
H195        H  0.13473268  0.23759557  0.99657339     0.07000
H196        H  0.13858850  0.14421527  0.98700588     0.06800
C197        C  0.01923517  0.17823105  0.30442399     0.03800
C198        C  0.04295814  0.20993973  0.31967875    -0.12300
C199        C  0.07221714  0.23374247  0.30013140     0.01300
C200        C  0.07653573  0.22569678  0.26436457    -0.10800
C201        C  0.05259343  0.19396271  0.24843611     0.03800
C202        C  0.02405308  0.17062097  0.26861605    -0.10300
H203        H  0.03925915  0.21537135  0.34747755     0.09400
H204        H  0.09923392  0.24362241  0.24946887     0.07000
H205        H  0.50598310  0.14602587  0.25673717     0.06800
Zn206      Zn  0.42414571  0.06263926  0.41678001     1.49700
Zn207      Zn  0.43845460  0.07585071  0.33305640     1.49400
Zn208      Zn  0.36766609  0.06387828  0.36501525     1.49100
Zn209      Zn  0.43582242  0.13262202  0.38362887     1.49500
O210        O  0.41661263  0.08365860  0.37455976    -1.83400
O211        O  0.45502517  0.04277283  0.40605767    -0.74000
O212        O  0.40672805  0.05883603  0.28962804    -0.73900
O213        O  0.33891120  0.02110432  0.39570795    -0.73400
O214        O  0.45841993  0.04538959  0.34557056    -0.74100
O215        O  0.37937982  0.02372695  0.43240323    -0.73700
O216        O  0.35909856  0.05567459  0.31112843    -0.74200
O217        O  0.40183290  0.14732217  0.37154075    -0.73600
O218        O  0.47700213  0.12088999  0.31647936    -0.74400
O219        O  0.35256094  0.09801345  0.37537199    -0.73800
O220        O  0.47852237  0.16106181  0.35293957    -0.74200
O221        O  0.44320202  0.14231529  0.43769485    -0.74200
O222        O  0.43947908  0.09468734  0.45994698    -0.73900
C223        C  0.46459864  0.03606523  0.37604216     0.77800
C224        C  0.37701513  0.05493427  0.28481723     0.78300
C225        C  0.34813473  0.00986211  0.42275148     0.77300
C226        C  0.36928014  0.13057284  0.37320815     0.77700
C227        C  0.49016286  0.15214840  0.32598153     0.78800
C228        C  0.44336824  0.12445981  0.46439051     0.77900
C229        C  0.01969881  0.34425763  0.44209844     0.03800
C230        C  0.02216843  0.35418971  0.47882532    -0.12300
C231        C  0.05106364  0.36080870  0.99946254     0.01300
C232        C  0.07662196  0.35596090  0.48328178    -0.10800
C233        C  0.07369019  0.34521565  0.44727051     0.03800
C234        C  0.04532369  0.33958770  0.42654709    -0.10300
H235        H  0.50249161  0.35825166  0.99063209     0.09400
H236        H  0.09925305  0.36085346  0.99848767     0.07000
H237        H  0.04332051  0.33184527  0.39829437     0.06800
Zn238      Zn  0.16596805  0.33425564  0.32179666     1.49700
Zn239      Zn  0.20253081  0.32991031  0.39596955     1.49400
Zn240      Zn  0.17000513  0.37590741  0.39545392     1.49100
Zn241      Zn  0.12286483  0.29649758  0.39369079     1.49500
O242        O  0.16535812  0.33407376  0.37574153    -1.83400
O243        O  0.21269599  0.34109565  0.30419755    -0.74000
O244        O  0.23272377  0.36878836  0.43042746    -0.73900
O245        O  0.16586165  0.40215741  0.35560072    -0.73400
O246        O  0.23403583  0.33505437  0.35634617    -0.74100
O247        O  0.16034634  0.37446608  0.30374665    -0.73700
O248        O  0.21605542  0.40640446  0.41817222    -0.74200
O249        O  0.09362007  0.31271529  0.41691443    -0.73600
O250        O  0.18567760  0.28339071  0.41793027    -0.74400
O251        O  0.13110640  0.36747601  0.42879724    -0.73800
O252        O  0.13020285  0.26473738  0.42621140    -0.74200
O253        O  0.09576886  0.26684398  0.35301910    -0.74200
O254        O  0.12545996  0.28830134  0.30224871    -0.73900
C255        C  0.23655336  0.34022844  0.32226974     0.77800
C256        C  0.23731914  0.39904827  0.43211408     0.78300
C257        C  0.16144320  0.39946552  0.32143817     0.77300
C258        C  0.10101627  0.34151637  0.43052860     0.77700
C259        C  0.15624615  0.26101671  0.42945566     0.78800
C260        C  0.09922285  0.26491999  0.31902264     0.77900
Zn261      Zn  0.41510097  0.30187323  0.41033401     1.49700
Zn262      Zn  0.46203757  0.36018197  0.35662597     1.49400
Zn263      Zn  0.38462009  0.30316612  0.33958811     1.49100
Zn264      Zn  0.39671429  0.36027220  0.39591895     1.49500
O265        O  0.41554288  0.33339855  0.37552205    -1.83400
O266        O  0.46062786  0.31872326  0.43223321    -0.74000
O267        O  0.46453800  0.34481574  0.30391432    -0.73900
O268        O  0.35634073  0.25470489  0.35732909    -0.73400
O269        O  0.49510007  0.35441495  0.38981943    -0.74100
O270        O  0.39762676  0.25482664  0.39006438    -0.73700
O271        O  0.41091752  0.30193518  0.29802517    -0.74200
O272        O  0.35849107  0.35665851  0.36244373    -0.73600
O273        O  0.47618135  0.41071037  0.36107034    -0.74400
O274        O  0.35537621  0.32029421  0.31962746    -0.73800
O275        O  0.43450202  0.41074864  0.39403839    -0.74200
O276        O  0.37853926  0.34285440  0.44818033    -0.74200
O277        O  0.38561634  0.29757302  0.45136455    -0.73900
C278        C  0.49035265  0.33883516  0.42007905     0.77800
C279        C  0.44110811  0.31966436  0.28570671     0.78300
C280        C  0.36915967  0.23879344  0.37340422     0.77300
C281        C  0.34689763  0.34117269  0.33209916     0.77700
C282        C  0.46352463  0.42663555  0.37792453     0.78800
C283        C  0.37497412  0.31634558  0.46500265     0.77900
C284        C  0.32323159  0.34733634  0.31030915     0.03800
C285        C  0.33067624  0.35737427  0.27377434    -0.12300
C286        C  0.30796130  0.36300392  0.25277667     0.01300
C287        C  0.27658961  0.35657020  0.26837730    -0.10800
C288        C  0.26863513  0.34586423  0.30468432     0.03800
C289        C  0.29261538  0.34191424  0.32554705    -0.10300
H290        H  0.35472289  0.36201010  0.26223690     0.09400
H291        H  0.25865559  0.36061131  0.25255948     0.07000
H292        H  0.28733341  0.33388794  0.35370144     0.06800
C293        C  0.32270416  0.48039728  0.44430675     0.03800
C294        C  0.29075849  0.45619116  0.42961042    -0.12300
C295        C  0.26871586  0.42643168  0.44921710     0.01300
C296        C  0.27817916  0.42164335  0.48395030    -0.10800
C297        C  0.30940078  0.44639926  0.99977458     0.03800
C298        C  0.33148317  0.47558177  0.47973582    -0.10300
H299        H  0.28391164  0.45944103  0.40224205     0.09400
H300        H  0.26102153  0.39836633  0.99851891     0.07000
H301        H  0.35592932  0.99421611  0.99146662     0.06800
C302        C  0.15513672  0.47910454  0.30780599     0.03800
C303        C  0.16005944  0.45391250  0.32378765    -0.12300
C304        C  0.15691988  0.42617500  0.30321223     0.01300
C305        C  0.14778029  0.42364003  0.26645064    -0.10800
C306        C  0.14155760  0.44836062  0.25015831     0.03800
C307        C  0.14640259  0.47666646  0.27079946    -0.10300
H308        H  0.16692490  0.45643504  0.35235283     0.09400
H309        H  0.14431344  0.40169260  0.25090348     0.07000
H310        H  0.14180431  0.99589266  0.25870749     0.06800
C311        C  0.35061043  0.14931764  0.37280306     0.80900
N312        N  0.36800824  0.18412781  0.37345905    -0.77400
C313        C  0.35067167  0.20147962  0.37309964     0.83400
N314        N  0.31596940  0.18406579  0.37287935    -0.77300
C315        C  0.29852753  0.14935286  0.37258400     0.83500
N316        N  0.31582498  0.13196973  0.37220639    -0.79000
C317        C  0.01899891  0.48196677  0.62677462     0.80900
N318        N  0.03631920  0.01690041  0.62652112    -0.77400
C319        C  0.01894739  0.03435004  0.62647838     0.83400
N320        N  0.48405220  0.01661208  0.62656858    -0.77300
C321        C  0.46646539  0.48171131  0.62680933     0.83500
N322        N  0.48407169  0.46450868  0.62690145    -0.79000
C323        C  0.15026103  0.34999692  0.62259392     0.80900
N324        N  0.13279522  0.31524873  0.62212333    -0.77400
C325        C  0.15001408  0.29780961  0.62203744     0.83400
N326        N  0.18479261  0.31517518  0.62262415    -0.77300
C327        C  0.20231964  0.34996239  0.62314559     0.83500
N328        N  0.18501512  0.36733775  0.62310445    -0.79000
C329        C  0.34758909  0.32405141  0.56049826     0.03800
C330        C  0.35601634  0.33070111  0.52348389    -0.12300
C331        C  0.36028534  0.30728697  0.00215196     0.01300
C332        C  0.35397592  0.27603388  0.51792825    -0.10800
C333        C  0.34511793  0.26902401  0.55473041     0.03800
C334        C  0.34259583  0.29367337  0.57591101    -0.10300
H335        H  0.36048923  0.35464463  0.01179680     0.09400
H336        H  0.35690247  0.25751068  0.00188109     0.07000
H337        H  0.33583863  0.28903236  0.60444310     0.06800
Zn338      Zn  0.03766902  0.39687579  0.60676245     1.49700
Zn339      Zn  0.11483595  0.41638273  0.58909322     1.49400
Zn340      Zn  0.10414276  0.46265825  0.64393708     1.49100
Zn341      Zn  0.08473708  0.38500668  0.66014106     1.49500
O342        O  0.08435495  0.41614878  0.62511585    -1.83400
O343        O  0.03447185  0.37849479  0.55432290    -0.74000
O344        O  0.14371878  0.46215656  0.56729811    -0.73900
O345        O  0.06722823  0.47630404  0.64203316    -0.73400
O346        O  0.08758453  0.38799028  0.54866386    -0.74100
O347        O  0.02446007  0.43394517  0.61038252    -0.73700
O348        O  0.14195241  0.49628681  0.60980219    -0.74200
O349        O  0.11400983  0.41150011  0.70099654    -0.73600
O350        O  0.14383794  0.39702564  0.60651012    -0.74400
O351        O  0.12329323  0.46465409  0.69568204    -0.73800
O352        O  0.10362052  0.35626855  0.64056705    -0.74200
O353        O  0.03887970  0.35550499  0.68182548    -0.74200
O354        O  0.00445598  0.35861319  0.64056565    -0.73900
C355        C  0.05745809  0.37609197  0.53630678     0.77800
C356        C  0.15283830  0.49183103  0.57939960     0.78300
C357        C  0.03791326  0.46308213  0.62640803     0.77300
C358        C  0.12604307  0.44168018  0.71338674     0.77700
C359        C  0.13166866  0.36865241  0.62320730     0.78800
C360        C  0.00913404  0.34691218  0.67028993     0.77900
C361        C  0.17679343  0.02147738  0.55757003     0.03800
C362        C  0.20738160  0.04655368  0.57326569    -0.12300
C363        C  0.23141386  0.07489724  0.55301709     0.01300
C364        C  0.22367216  0.07814340  0.51677700    -0.10800
C365        C  0.19235441  0.05334635  0.00065157     0.03800
C366        C  0.16947950  0.02451783  0.52104792    -0.10300
H367        H  0.21247868  0.04351788  0.60142588     0.09400
H368        H  0.24169501  0.10048109  0.00145904     0.07000
H369        H  0.14539133  0.50526354  0.00917455     0.06800
C370        C  0.47960706  0.32332574  0.69240846     0.03800
C371        C  0.47670330  0.33180139  0.72863949    -0.12300
C372        C  0.44734720  0.31016292  0.74902778     0.01300
C373        C  0.42167406  0.27941762  0.73304629    -0.10800
C374        C  0.42508559  0.27042280  0.69762515     0.03800
C375        C  0.45398211  0.29255073  0.67722039    -0.08700
H376        H  0.99646161  0.35579137  0.74021356     0.09400
H377        H  0.39874177  0.26218817  0.74807261     0.07000
H378        H  0.45632878  0.28604862  0.64937138     0.06800
Zn379      Zn  0.29634626  0.12437937  0.64560710     1.49700
Zn380      Zn  0.32887679  0.20331471  0.64598617     1.49400
Zn381      Zn  0.37536916  0.17136588  0.64520545     1.49100
Zn382      Zn  0.33338133  0.16644205  0.57217120     1.49500
O383        O  0.33335568  0.16624823  0.62621731    -1.83400
O384        O  0.26514454  0.13228048  0.67868109    -0.74000
O385        O  0.36719385  0.23339267  0.68071309    -0.73900
O386        O  0.36804578  0.13377797  0.68031293    -0.73400
O387        O  0.28236575  0.18695380  0.66718289    -0.74100
O388        O  0.31347354  0.09544929  0.66875919    -0.73700
O389        O  0.40551265  0.21814397  0.66628711    -0.74200
O390        O  0.37241441  0.15881805  0.55306696    -0.73600
O391        O  0.33428712  0.23456716  0.60634637    -0.74400
O392        O  0.40044210  0.16546011  0.60486776    -0.73800
O393        O  0.34071235  0.21326139  0.55437322    -0.74200
O394        O  0.28661981  0.12708156  0.55390720    -0.74200
O395        O  0.26583983  0.09782607  0.60515447    -0.73900
C396        C  0.26067524  0.15798013  0.68021378     0.77800
C397        C  0.39776002  0.23881901  0.68106823     0.78300
C398        C  0.34253055  0.10342554  0.68228082     0.77300
C399        C  0.39733769  0.15983208  0.57083859     0.77700
C400        C  0.33963342  0.23706132  0.57233772     0.78800
C401        C  0.26320620  0.10138374  0.57125399     0.77900
Zn402      Zn  0.30320609  0.41781303  0.65952374     1.49700
Zn403      Zn  0.36267664  0.46244920  0.60525155     1.49400
Zn404      Zn  0.36128311  0.39761962  0.64635813     1.49100
Zn405      Zn  0.30389247  0.38513923  0.59073773     1.49500
O406        O  0.33483988  0.41683429  0.62576886    -1.83400
O407        O  0.32024022  0.46473615  0.67795009    -0.74000
O408        O  0.41294578  0.47516273  0.60852211    -0.73900
O409        O  0.34313477  0.37991199  0.69857572    -0.73400
O410        O  0.35938113  0.49783878  0.63727717    -0.74100
O411        O  0.30004820  0.39046591  0.70254357    -0.73700
O412        O  0.41225658  0.43460275  0.64412722    -0.74200
O413        O  0.32140635  0.35681092  0.57002179    -0.73600
O414        O  0.34569326  0.46306012  0.55308099    -0.74400
O415        O  0.35709583  0.35896701  0.61308116    -0.73800
O416        O  0.30064996  0.41032028  0.54930418    -0.74200
O417        O  0.25602886  0.35566141  0.60947923    -0.74200
O418        O  0.25546975  0.39794987  0.63939136    -0.73900
C419        C  0.34240401  0.49406857  0.66632486     0.77800
C420        C  0.42854272  0.46276438  0.62646415     0.78300
C421        C  0.31759721  0.37820950  0.71584456     0.77300
C422        C  0.34191773  0.34790674  0.58248689     0.77700
C423        C  0.31925632  0.43998599  0.53607358     0.78800
C424        C  0.23971155  0.36871890  0.62407207     0.77900
C425        C  0.34920546  0.02378174  0.68858883     0.03800
C426        C  0.34303436  0.04916932  0.67512657    -0.12300
C427        C  0.34747870  0.07623803  0.69771596     0.01300
C428        C  0.35811167  0.07771846  0.73387399    -0.10800
C429        C  0.36417356  0.05214168  0.74752589     0.03800
C430        C  0.35988618  0.02539536  0.72476789    -0.10300
H431        H  0.33472657  0.04783378  0.64717085     0.09400
H432        H  0.36209866  0.09891656  0.75116108     0.07000
H433        H  0.36466833  0.50573142  0.73525095     0.06800
C434        C  0.17597738  0.15465882  0.69001449     0.03800
C435        C  0.16795239  0.14453346  0.72659516    -0.12300
C436        C  0.18993785  0.13794189  0.74770660     0.01300
C437        C  0.22060043  0.14283449  0.73205745    -0.10800
C438        C  0.22906926  0.15380812  0.69619987     0.03800
C439        C  0.20658888  0.15947428  0.67504722    -0.10300
H440        H  0.14406702  0.14049760  0.73799180     0.09400
H441        H  0.23812609  0.13796069  0.74762319     0.07000
H442        H  0.21282776  0.16746791  0.64695833     0.06800
Zn443      Zn  0.11432426  0.19756513  0.65846010     1.49700
Zn444      Zn  0.08133358  0.19604922  0.58907277     1.49400
Zn445      Zn  0.10231965  0.13914686  0.60422982     1.49100
Zn446      Zn  0.03729753  0.13833324  0.64447054     1.49500
O447        O  0.08276754  0.16566223  0.62390789    -1.83400
O448        O  0.14402871  0.24442879  0.63764836    -0.74000
O449        O  0.10808431  0.19768328  0.54671772    -0.73900
O450        O  0.14164789  0.14513920  0.63722005    -0.73400
O451        O  0.10163934  0.24442074  0.60731907    -0.74100
O452        O  0.14276196  0.18043690  0.68023437    -0.73700
O453        O  0.11923859  0.15511196  0.55135604    -0.74200
O454        O  0.02496643  0.08809420  0.64294606    -0.73600
O455        O  0.03460419  0.17857019  0.57009132    -0.74400
O456        O  0.06587210  0.08826729  0.60837361    -0.73800
O457        O  0.00174360  0.14053032  0.61169211    -0.74200
O458        O  0.03686383  0.15705923  0.69576658    -0.74200
O459        O  0.08924556  0.20277190  0.69922348    -0.73900
C460        C  0.13105900  0.26044541  0.62220131     0.77800
C461        C  0.12039837  0.18014632  0.53363790     0.78300
C462        C  0.15237950  0.16044102  0.66778204     0.77300
C463        C  0.03767423  0.07225736  0.62598859     0.77700
C464        C  0.00534725  0.15669727  0.58206747     0.78800
C465        C  0.05953343  0.18409278  0.71235692     0.77900
C466        C  0.47544023  0.15020922  0.56031358     0.03800
C467        C  0.47340922  0.14071206  0.52376637    -0.12300
C468        C  0.44677939  0.13772458  0.00166962     0.01300
C469        C  0.42199131  0.14473508  0.51627194    -0.10800
C470        C  0.42354427  0.15381607  0.55324484     0.03800
C471        C  0.45049226  0.15622029  0.57496140    -0.10300
H472        H  0.99263451  0.13566455  0.01247763     0.09400
H473        H  0.40108791  0.14195905  0.99929472     0.07000
H474        H  0.45281582  0.16366184  0.60333768     0.06800
C475        C  0.48321099  0.01706073  0.87653740     0.80900
N476        N  0.01799748  0.03422275  0.87444535    -0.77400
C477        C  0.03540103  0.01683456  0.87502373     0.83400
N478        N  0.01766557  0.48195435  0.87660722    -0.77300
C479        C  0.48278158  0.46451815  0.87817781     0.83500
N480        N  0.46569758  0.48223975  0.87860969    -0.79000
Zn481      Zn  0.14027176  0.03759037  0.89380968     1.49700
Zn482      Zn  0.19789505  0.11549970  0.90954314     1.49400
Zn483      Zn  0.19697277  0.08372366  0.83882677     1.49100
Zn484      Zn  0.13900705  0.10227809  0.85455188     1.49500
O485        O  0.16655442  0.08387568  0.87448011    -1.83400
O486        O  0.15748247  0.03639384  0.94603421    -0.74000
O487        O  0.24572581  0.14370208  0.89005255    -0.73900
O488        O  0.18002119  0.03817496  0.81715574    -0.73400
O489        O  0.20065277  0.09003166  0.95159201    -0.74100
O490        O  0.14516496  0.00400659  0.86020692    -0.73700
O491        O  0.24483369  0.10217381  0.85703315    -0.74200
O492        O  0.15456966  0.11992992  0.80187409    -0.73600
O493        O  0.18110210  0.14517988  0.92932821    -0.74400
O494        O  0.19930051  0.11213589  0.79803995    -0.73800
O495        O  0.14332061  0.14085140  0.88759154    -0.74200
O496        O  0.08881383  0.06461815  0.85788268    -0.74200
O497        O  0.08950239  0.02332386  0.89096437    -0.73900
C498        C  0.18295046  0.05982236  0.96397758     0.77800
C499        C  0.26123946  0.13084471  0.87325517     0.78300
C500        C  0.16019145  0.00852322  0.82960003     0.77300
C501        C  0.18065556  0.12302070  0.78467699     0.77700
C502        C  0.15969809  0.15317733  0.91731734     0.78800
C503        C  0.07325588  0.03583923  0.87446503     0.77900
C504        C  0.15326609  0.17647919  0.93931263     0.03800
C505        C  0.15813458  0.20714840  0.92443527    -0.12300
C506        C  0.15188663  0.22931995  0.94545802     0.01300
C507        C  0.14008092  0.22036805  0.98106379    -0.10800
C508        C  0.13525684  0.18967832  0.49663460     0.03800
C509        C  0.14250240  0.16807994  0.97565902    -0.10300
H510        H  0.16666108  0.21368821  0.89652964     0.09400
H511        H  0.13473271  0.23759559  0.49657346     0.07000
H512        H  0.13858850  0.14421523  0.48700591     0.06800
C513        C  0.01923532  0.17823108  0.80442407     0.03800
C514        C  0.04295825  0.20993978  0.81967879    -0.12300
C515        C  0.07221719  0.23374253  0.80013139     0.01300
C516        C  0.07653574  0.22569686  0.76436453    -0.10800
C517        C  0.05259340  0.19396280  0.74843607     0.03800
C518        C  0.02405317  0.17062109  0.76861611    -0.10300
H519        H  0.03925921  0.21537140  0.84747761     0.09400
H520        H  0.09923392  0.24362246  0.74946879     0.07000
H521        H  0.50598306  0.14602589  0.75673716     0.06800
Zn522      Zn  0.42414569  0.06263931  0.91678011     1.49700
Zn523      Zn  0.43845458  0.07585068  0.83305633     1.49400
Zn524      Zn  0.36766607  0.06387824  0.86501522     1.49100
Zn525      Zn  0.43582245  0.13262215  0.88362886     1.49500
O526        O  0.41661268  0.08365866  0.87455976    -1.83400
O527        O  0.45502510  0.04277279  0.90605764    -0.74000
O528        O  0.40672809  0.05883593  0.78962794    -0.73900
O529        O  0.33891115  0.02110422  0.89570790    -0.73400
O530        O  0.45842001  0.04538969  0.84557053    -0.74100
O531        O  0.37937973  0.02372693  0.93240331    -0.73700
O532        O  0.35909871  0.05567473  0.81112838    -0.74200
O533        O  0.40183287  0.14732224  0.87154090    -0.73600
O534        O  0.47700225  0.12089003  0.81647939    -0.74400
O535        O  0.35256092  0.09801345  0.87537190    -0.73800
O536        O  0.47852240  0.16106191  0.85293949    -0.74200
O537        O  0.44320203  0.14231538  0.93769492    -0.74200
O538        O  0.43947902  0.09468737  0.95994699    -0.73900
C539        C  0.46459869  0.03606530  0.87604213     0.77800
C540        C  0.37701522  0.05493432  0.78481715     0.78300
C541        C  0.34813465  0.00986205  0.92275148     0.77300
C542        C  0.36928011  0.13057286  0.87320819     0.77700
C543        C  0.49016298  0.15214846  0.82598156     0.78800
C544        C  0.44336819  0.12445984  0.96439055     0.77900
C545        C  0.01969880  0.34425769  0.94209853     0.03800
C546        C  0.02216844  0.35418980  0.97882541    -0.12300
C547        C  0.05106359  0.36080859  0.49946254     0.01300
C548        C  0.07662200  0.35596101  0.98328173    -0.10800
C549        C  0.07369016  0.34521565  0.94727049     0.03800
C550        C  0.04532359  0.33958765  0.92654717    -0.10300
H551        H  0.50249155  0.35825158  0.49063193     0.09400
H552        H  0.09925297  0.36085328  0.49848779     0.07000
H553        H  0.04332031  0.33184513  0.89829449     0.06800
Zn554      Zn  0.16596797  0.33425559  0.82179681     1.49700
Zn555      Zn  0.20253088  0.32991029  0.89596952     1.49400
Zn556      Zn  0.17000507  0.37590736  0.89545389     1.49100
Zn557      Zn  0.12286475  0.29649750  0.89369077     1.49500
O558        O  0.16535810  0.33407374  0.87574166    -1.83400
O559        O  0.21269597  0.34109572  0.80419754    -0.74000
O560        O  0.23272394  0.36878844  0.93042736    -0.73900
O561        O  0.16586164  0.40215740  0.85560071    -0.73400
O562        O  0.23403572  0.33505423  0.85634609    -0.74100
O563        O  0.16034622  0.37446601  0.80374669    -0.73700
O564        O  0.21605537  0.40640440  0.91817221    -0.74200
O565        O  0.09361997  0.31271522  0.91691436    -0.73600
O566        O  0.18567761  0.28339076  0.91793027    -0.74400
O567        O  0.13110638  0.36747591  0.92879723    -0.73800
O568        O  0.13020282  0.26473734  0.92621133    -0.74200
O569        O  0.09576892  0.26684387  0.85301911    -0.74200
O570        O  0.12545991  0.28830140  0.80224871    -0.73900
C571        C  0.23655331  0.34022841  0.82226970     0.77800
C572        C  0.23731920  0.39904832  0.93211402     0.78300
C573        C  0.16144318  0.39946550  0.82143817     0.77300
C574        C  0.10101621  0.34151632  0.93052854     0.77700
C575        C  0.15624617  0.26101673  0.92945564     0.78800
C576        C  0.09922287  0.26491998  0.81902264     0.77900
Zn577      Zn  0.41510102  0.30187317  0.91033396     1.49700
Zn578      Zn  0.46203756  0.36018203  0.85662597     1.49400
Zn579      Zn  0.38462000  0.30316606  0.83958807     1.49100
Zn580      Zn  0.39671420  0.36027211  0.89591891     1.49500
O581        O  0.41554286  0.33339855  0.87552201    -1.83400
O582        O  0.46062786  0.31872320  0.93223331    -0.74000
O583        O  0.46453793  0.34481567  0.80391443    -0.73900
O584        O  0.35634069  0.25470489  0.85732908    -0.73400
O585        O  0.49510004  0.35441496  0.88981951    -0.74100
O586        O  0.39762673  0.25482659  0.89006433    -0.73700
O587        O  0.41091747  0.30193507  0.79802518    -0.74200
O588        O  0.35849101  0.35665846  0.86244369    -0.73600
O589        O  0.47618134  0.41071039  0.86107022    -0.74400
O590        O  0.35537611  0.32029416  0.81962739    -0.73800
O591        O  0.43450201  0.41074857  0.89403838    -0.74200
O592        O  0.37853920  0.34285436  0.94818028    -0.74200
O593        O  0.38561630  0.29757298  0.95136452    -0.73900
C594        C  0.49035263  0.33883518  0.92007916     0.77800
C595        C  0.44110809  0.31966431  0.78570677     0.78300
C596        C  0.36915965  0.23879343  0.87340414     0.77300
C597        C  0.34689759  0.34117268  0.83209911     0.77700
C598        C  0.46352460  0.42663552  0.87792449     0.78800
C599        C  0.37497411  0.31634557  0.96500263     0.77900
C600        C  0.32323160  0.34733639  0.81030916     0.03800
C601        C  0.33067632  0.35737441  0.77377439    -0.12300
C602        C  0.30796135  0.36300403  0.75277675     0.01300
C603        C  0.27658965  0.35657020  0.76837736    -0.10800
C604        C  0.26863510  0.34586423  0.80468433     0.03800
C605        C  0.29261535  0.34191421  0.82554703    -0.10300
H606        H  0.35472297  0.36201026  0.76223696     0.09400
H607        H  0.25865551  0.36061124  0.75255942     0.07000
H608        H  0.28733330  0.33388776  0.85370144     0.06800
C609        C  0.32270424  0.48039737  0.94430671     0.03800
C610        C  0.29075855  0.45619128  0.92961036    -0.12300
C611        C  0.26871591  0.42643178  0.94921706     0.01300
C612        C  0.27817927  0.42164352  0.98395024    -0.10800
C613        C  0.30940067  0.44639918  0.49977462     0.03800
C614        C  0.33148331  0.47558185  0.97973575    -0.10300
H615        H  0.28391169  0.45944118  0.90224204     0.09400
H616        H  0.26102152  0.39836621  0.49851886     0.07000
H617        H  0.35592934  0.99421607  0.49146660     0.06800
C618        C  0.15513675  0.47910457  0.80780609     0.03800
C619        C  0.16005942  0.45391249  0.82378775    -0.12300
C620        C  0.15691998  0.42617507  0.80321226     0.01300
C621        C  0.14778046  0.42364013  0.76645064    -0.10800
C622        C  0.14155777  0.44836072  0.75015832     0.03800
C623        C  0.14640275  0.47666653  0.77079952    -0.10300
H624        H  0.16692475  0.45643496  0.85235302     0.09400
H625        H  0.14431356  0.40169269  0.75090352     0.07000
H626        H  0.14180414  0.99589257  0.75870759     0.06800
C627        C  0.35061041  0.14931765  0.87280312     0.80900
N628        N  0.36800822  0.18412781  0.87345904    -0.77400
C629        C  0.35067166  0.20147961  0.87309954     0.83400
N630        N  0.31596939  0.18406578  0.87287934    -0.77300
C631        C  0.29852752  0.14935285  0.87258407     0.83500
N632        N  0.31582498  0.13196974  0.87220645    -0.79000
C633        C  0.01899892  0.98196677  0.12677462     0.80900
N634        N  0.03631923  0.51690040  0.12652101    -0.77400
C635        C  0.01894738  0.53435003  0.12647840     0.83400
N636        N  0.48405223  0.51661207  0.12656865    -0.77300
C637        C  0.46646541  0.98171132  0.12680939     0.83500
N638        N  0.48407169  0.96450868  0.12690152    -0.79000
C639        C  0.15026105  0.84999693  0.12259392     0.80900
N640        N  0.13279525  0.81524873  0.12212322    -0.77400
C641        C  0.15001410  0.79780961  0.12203745     0.83400
N642        N  0.18479262  0.81517518  0.12262423    -0.77300
C643        C  0.20231964  0.84996238  0.12314565     0.83500
N644        N  0.18501513  0.86733775  0.12310453    -0.79000
C645        C  0.34758916  0.82405145  0.06049820     0.03800
C646        C  0.35601631  0.83070112  0.02348380    -0.12300
C647        C  0.36028536  0.80728697  0.50215200     0.01300
C648        C  0.35397586  0.77603385  0.01792821    -0.10800
C649        C  0.34511789  0.76902401  0.05473039     0.03800
C650        C  0.34259591  0.79367343  0.07591097    -0.10300
H651        H  0.36048927  0.85464465  0.51179691     0.09400
H652        H  0.35690252  0.75751066  0.50188108     0.07000
H653        H  0.33583879  0.78903248  0.10444309     0.06800
Zn654      Zn  0.03766897  0.89687578  0.10676249     1.49700
Zn655      Zn  0.11483588  0.91638273  0.08909326     1.49400
Zn656      Zn  0.10414272  0.96265825  0.14393712     1.49100
Zn657      Zn  0.08473701  0.88500668  0.16014111     1.49500
O658        O  0.08435485  0.91614878  0.12511590    -1.83400
O659        O  0.03447191  0.87849482  0.05432294    -0.74000
O660        O  0.14371866  0.96215654  0.06729799    -0.73900
O661        O  0.06722827  0.97630407  0.14203321    -0.73400
O662        O  0.08758458  0.88799027  0.04866388    -0.74100
O663        O  0.02446012  0.93394518  0.11038258    -0.73700
O664        O  0.14195253  0.99628679  0.10980221    -0.74200
O665        O  0.11400975  0.91150010  0.20099656    -0.73600
O666        O  0.14383796  0.89702567  0.10651017    -0.74400
O667        O  0.12329316  0.96465410  0.19568206    -0.73800
O668        O  0.10362057  0.85626858  0.14056712    -0.74200
O669        O  0.03887971  0.85550501  0.18182558    -0.74200
O670        O  0.00445600  0.85861316  0.14056570    -0.73900
C671        C  0.05745813  0.87609198  0.03630681     0.77800
C672        C  0.15283831  0.99183102  0.07939955     0.78300
C673        C  0.03791329  0.96308214  0.12640807     0.77300
C674        C  0.12604301  0.94168018  0.21338674     0.77700
C675        C  0.13166870  0.86865242  0.12320734     0.78800
C676        C  0.00913406  0.84691217  0.17029001     0.77900
C677        C  0.17679346  0.52147739  0.05756992     0.03800
C678        C  0.20738158  0.54655373  0.07326565    -0.12300
C679        C  0.23141385  0.57489726  0.05301700     0.01300
C680        C  0.22367221  0.57814341  0.01677689    -0.10800
C681        C  0.19235443  0.55334636  0.50065166     0.03800
C682        C  0.16947956  0.52451782  0.02104781    -0.10300
H683        H  0.21247861  0.54351796  0.10142576     0.09400
H684        H  0.24169504  0.60048110  0.50145913     0.07000
H685        H  0.14539125  0.00526361  0.50917469     0.06800
C686        C  0.47960708  0.82332572  0.19240852     0.03800
C687        C  0.47670326  0.83180140  0.22863951    -0.12300
C688        C  0.44734715  0.81016295  0.24902774     0.01300
C689        C  0.42167400  0.77941761  0.23304630    -0.10800
C690        C  0.42508559  0.77042278  0.19762518     0.03800
C691        C  0.45398215  0.79255069  0.17722051    -0.08700
H692        H  0.99646156  0.85579140  0.24021361     0.09400
H693        H  0.39874176  0.76218822  0.24807257     0.07000
H694        H  0.45632886  0.78604856  0.14937141     0.06800
Zn695      Zn  0.29634617  0.62437937  0.14560700     1.49700
Zn696      Zn  0.32887685  0.70331471  0.14598622     1.49400
Zn697      Zn  0.37536911  0.67136588  0.14520549     1.49100
Zn698      Zn  0.33338126  0.66644204  0.07217123     1.49500
O699        O  0.33335569  0.66624822  0.12621732    -1.83400
O700        O  0.26514447  0.63228045  0.17868109    -0.74000
O701        O  0.36719382  0.73339272  0.18071317    -0.73900
O702        O  0.36804571  0.63377797  0.18031298    -0.73400
O703        O  0.28236581  0.68695379  0.16718297    -0.74100
O704        O  0.31347348  0.59544929  0.16875921    -0.73700
O705        O  0.40551255  0.71814396  0.16628715    -0.74200
O706        O  0.37241444  0.65881807  0.05306703    -0.73600
O707        O  0.33428709  0.73456718  0.10634643    -0.74400
O708        O  0.40044216  0.66546011  0.10486781    -0.73800
O709        O  0.34071229  0.71326139  0.05437327    -0.74200
O710        O  0.28661976  0.62708156  0.05390714    -0.74200
O711        O  0.26583976  0.59782609  0.10515439    -0.73900
C712        C  0.26067524  0.65798014  0.18021384     0.77800
C713        C  0.39775997  0.73881903  0.18106827     0.78300
C714        C  0.34253051  0.60342553  0.18228083     0.77300
C715        C  0.39733774  0.65983210  0.07083863     0.77700
C716        C  0.33963337  0.73706132  0.07233776     0.78800
C717        C  0.26320616  0.60138374  0.07125392     0.77900
Zn718      Zn  0.30320613  0.91781304  0.15952373     1.49700
Zn719      Zn  0.36267671  0.96244921  0.10525157     1.49400
Zn720      Zn  0.36128317  0.89761964  0.14635813     1.49100
Zn721      Zn  0.30389251  0.88513922  0.09073759     1.49500
O722        O  0.33483988  0.91683427  0.12576876    -1.83400
O723        O  0.32024032  0.96473613  0.17795019    -0.74000
O724        O  0.41294582  0.97516268  0.10852202    -0.73900
O725        O  0.34313474  0.87991201  0.19857567    -0.73400
O726        O  0.35938111  0.99783879  0.13727717    -0.74100
O727        O  0.30004812  0.89046585  0.20254346    -0.73700
O728        O  0.41225662  0.93460279  0.14412728    -0.74200
O729        O  0.32140645  0.85681095  0.07002176    -0.73600
O730        O  0.34569333  0.96306008  0.05308099    -0.74400
O731        O  0.35709602  0.85896709  0.11308109    -0.73800
O732        O  0.30064993  0.91032032  0.04930418    -0.74200
O733        O  0.25602882  0.85566148  0.10947906    -0.74200
O734        O  0.25546972  0.89794986  0.13939142    -0.73900
C735        C  0.34240404  0.99406856  0.16632492     0.77800
C736        C  0.42854275  0.96276439  0.12646416     0.78300
C737        C  0.31759715  0.87820947  0.21584448     0.77300
C738        C  0.34191788  0.84790682  0.08248683     0.77700
C739        C  0.31925635  0.93998601  0.03607358     0.78800
C740        C  0.23971153  0.86871891  0.12407207     0.77900
C741        C  0.34920556  0.52378178  0.18858886     0.03800
C742        C  0.34303442  0.54916933  0.17512661    -0.12300
C743        C  0.34747871  0.57623802  0.19771596     0.01300
C744        C  0.35811176  0.57771850  0.23387400    -0.10800
C745        C  0.36417362  0.55214170  0.24752590     0.03800
C746        C  0.35988627  0.52539536  0.22476794    -0.10300
H747        H  0.33472659  0.54783373  0.14717083     0.09400
H748        H  0.36209875  0.59891656  0.25116103     0.07000
H749        H  0.36466836  0.00573146  0.23525098     0.06800
C750        C  0.17597736  0.65465881  0.19001452     0.03800
C751        C  0.16795237  0.64453347  0.22659520    -0.12300
C752        C  0.18993784  0.63794189  0.24770665     0.01300
C753        C  0.22060042  0.64283450  0.23205750    -0.10800
C754        C  0.22906927  0.65380816  0.19619994     0.03800
C755        C  0.20658888  0.65947429  0.17504727    -0.10300
H756        H  0.14406698  0.64049761  0.23799182     0.09400
H757        H  0.23812609  0.63796070  0.24762325     0.07000
H758        H  0.21282777  0.66746791  0.14695837     0.06800
Zn759      Zn  0.11432434  0.69756514  0.15845998     1.49700
Zn760      Zn  0.08133360  0.69604920  0.08907279     1.49400
Zn761      Zn  0.10231955  0.63914687  0.10422987     1.49100
Zn762      Zn  0.03729747  0.63833323  0.14447060     1.49500
O763        O  0.08276746  0.66566221  0.12390792    -1.83400
O764        O  0.14402878  0.74442882  0.13764838    -0.74000
O765        O  0.10808427  0.69768331  0.04671772    -0.73900
O766        O  0.14164779  0.64513912  0.13722007    -0.73400
O767        O  0.10163938  0.74442073  0.10731912    -0.74100
O768        O  0.14276204  0.68043698  0.18023428    -0.73700
O769        O  0.11923849  0.65511196  0.05135608    -0.74200
O770        O  0.02496636  0.58809418  0.14294611    -0.73600
O771        O  0.03460417  0.67857007  0.07009122    -0.74400
O772        O  0.06587205  0.58826731  0.10837366    -0.73800
O773        O  0.00174361  0.64053034  0.11169214    -0.74200
O774        O  0.03686391  0.65705924  0.19576662    -0.74200
O775        O  0.08924567  0.70277190  0.19922350    -0.73900
C776        C  0.13105904  0.76044542  0.12220138     0.77800
C777        C  0.12039830  0.68014632  0.03363790     0.78300
C778        C  0.15237948  0.66044101  0.16778202     0.77300
C779        C  0.03767421  0.57225736  0.12598865     0.77700
C780        C  0.00534723  0.65669721  0.08206744     0.78800
C781        C  0.05953353  0.68409279  0.21235694     0.77900
C782        C  0.47544018  0.65020916  0.06031359     0.03800
C783        C  0.47340919  0.64071202  0.02376638    -0.12300
C784        C  0.44677938  0.63772462  0.50166959     0.01300
C785        C  0.42199131  0.64473508  0.01627194    -0.10800
C786        C  0.42354428  0.65381610  0.05324482     0.03800
C787        C  0.45049228  0.65622032  0.07496138    -0.10300
H788        H  0.99263450  0.63566458  0.51247756     0.09400
H789        H  0.40108789  0.64195908  0.49929474     0.07000
H790        H  0.45281586  0.66366192  0.10333767     0.06800
C791        C  0.48321092  0.51706070  0.37653736     0.80900
N792        N  0.01799741  0.53422276  0.37444542    -0.77400
C793        C  0.03540099  0.51683459  0.37502377     0.83400
N794        N  0.01766558  0.98195434  0.37660730    -0.77300
C795        C  0.48278160  0.96451813  0.37817781     0.83500
N796        N  0.46569759  0.98223972  0.37860957    -0.79000
Zn797      Zn  0.14027179  0.53759036  0.39380972     1.49700
Zn798      Zn  0.19789508  0.61549970  0.40954320     1.49400
Zn799      Zn  0.19697282  0.58372366  0.33882683     1.49100
Zn800      Zn  0.13900711  0.60227809  0.35455193     1.49500
O801        O  0.16655445  0.58387568  0.37448018    -1.83400
O802        O  0.15748256  0.53639379  0.44603424    -0.74000
O803        O  0.24572580  0.64370211  0.39005259    -0.73900
O804        O  0.18002130  0.53817497  0.31715578    -0.73400
O805        O  0.20065275  0.59003168  0.45159211    -0.74100
O806        O  0.14516482  0.50400657  0.36020679    -0.73700
O807        O  0.24483364  0.60217380  0.35703322    -0.74200
O808        O  0.15456970  0.61992990  0.30187417    -0.73600
O809        O  0.18110204  0.64517983  0.42932820    -0.74400
O810        O  0.19930056  0.61213590  0.29803998    -0.73800
O811        O  0.14332063  0.64085146  0.38759150    -0.74200
O812        O  0.08881385  0.56461816  0.35788272    -0.74200
O813        O  0.08950235  0.52332386  0.39096447    -0.73900
C814        C  0.18295050  0.55982236  0.46397765     0.77800
C815        C  0.26123942  0.63084473  0.37325519     0.78300
C816        C  0.16019142  0.50852321  0.32959996     0.77300
C817        C  0.18065559  0.62302069  0.28467705     0.77700
C818        C  0.15969808  0.65317733  0.41731733     0.78800
C819        C  0.07325586  0.53583925  0.37446510     0.77900
C820        C  0.15326612  0.67647920  0.43931265     0.03800
C821        C  0.15813454  0.70714838  0.42443529    -0.12300
C822        C  0.15188668  0.72931997  0.44545808     0.01300
C823        C  0.14008098  0.72036805  0.48106383    -0.10800
C824        C  0.13525681  0.68967833  0.99663458     0.03800
C825        C  0.14250246  0.66807994  0.47565904    -0.10300
H826        H  0.16666093  0.71368814  0.39652961     0.09400
H827        H  0.13473270  0.73759561  0.99657341     0.07000
H828        H  0.13858854  0.64421526  0.98700592     0.06800
C829        C  0.01923524  0.67823109  0.30442399     0.03800
C830        C  0.04295819  0.70993976  0.31967876    -0.12300
C831        C  0.07221717  0.73374250  0.30013140     0.01300
C832        C  0.07653578  0.72569686  0.26436455    -0.10800
C833        C  0.05259344  0.69396282  0.24843606     0.03800
C834        C  0.02405316  0.67062110  0.26861605    -0.10300
H835        H  0.03925913  0.71537136  0.34747753     0.09400
H836        H  0.09923396  0.74362247  0.24946888     0.07000
H837        H  0.50598309  0.64602587  0.25673711     0.06800
Zn838      Zn  0.42414577  0.56263933  0.41678001     1.49700
Zn839      Zn  0.43845461  0.57585069  0.33305640     1.49400
Zn840      Zn  0.36766610  0.56387823  0.36501526     1.49100
Zn841      Zn  0.43582237  0.63262216  0.38362886     1.49500
O842        O  0.41661269  0.58365869  0.37455976    -1.83400
O843        O  0.45502516  0.54277281  0.40605769    -0.74000
O844        O  0.40672808  0.55883595  0.28962805    -0.73900
O845        O  0.33891107  0.52110423  0.39570794    -0.73400
O846        O  0.45841993  0.54538966  0.34557059    -0.74100
O847        O  0.37937974  0.52372693  0.43240319    -0.73700
O848        O  0.35909868  0.55567473  0.31112841    -0.74200
O849        O  0.40183284  0.64732229  0.37154074    -0.73600
O850        O  0.47700218  0.62089005  0.31647939    -0.74400
O851        O  0.35256096  0.59801346  0.37537199    -0.73800
O852        O  0.47852245  0.66106192  0.35293957    -0.74200
O853        O  0.44320189  0.64231533  0.43769488    -0.74200
O854        O  0.43947909  0.59468741  0.45994695    -0.73900
C855        C  0.46459864  0.53606526  0.37604217     0.77800
C856        C  0.37701521  0.55493433  0.28481721     0.78300
C857        C  0.34813462  0.50986205  0.42275148     0.77300
C858        C  0.36928009  0.63057287  0.37320819     0.77700
C859        C  0.49016294  0.65214848  0.32598156     0.78800
C860        C  0.44336815  0.62445984  0.46439052     0.77900
C861        C  0.01969883  0.84425769  0.44209843     0.03800
C862        C  0.02216850  0.85418981  0.47882528    -0.12300
C863        C  0.05106362  0.86080860  0.99946258     0.01300
C864        C  0.07662202  0.85596100  0.48328173    -0.10800
C865        C  0.07369018  0.84521561  0.44727050     0.03800
C866        C  0.04532365  0.83958763  0.42654712    -0.10300
H867        H  0.50249163  0.85825163  0.99063207     0.09400
H868        H  0.09925303  0.86085335  0.99848773     0.07000
H869        H  0.04332040  0.83184510  0.39829443     0.06800
Zn870      Zn  0.16596803  0.83425559  0.32179668     1.49700
Zn871      Zn  0.20253083  0.82991028  0.39596955     1.49400
Zn872      Zn  0.17000512  0.87590735  0.39545392     1.49100
Zn873      Zn  0.12286484  0.79649751  0.39369078     1.49500
O874        O  0.16535816  0.83407374  0.37574153    -1.83400
O875        O  0.21269598  0.84109572  0.30419758    -0.74000
O876        O  0.23272381  0.86878842  0.43042741    -0.73900
O877        O  0.16586174  0.90215745  0.35560071    -0.73400
O878        O  0.23403576  0.83505423  0.35634613    -0.74100
O879        O  0.16034632  0.87446604  0.30374668    -0.73700
O880        O  0.21605532  0.90640443  0.41817228    -0.74200
O881        O  0.09362007  0.81271522  0.41691444    -0.73600
O882        O  0.18567766  0.78339077  0.41793032    -0.74400
O883        O  0.13110639  0.86747594  0.42879724    -0.73800
O884        O  0.13020289  0.76473735  0.42621138    -0.74200
O885        O  0.09576885  0.76684388  0.35301913    -0.74200
O886        O  0.12545984  0.78830141  0.30224870    -0.73900
C887        C  0.23655333  0.84022843  0.32226973     0.77800
C888        C  0.23731911  0.89904831  0.43211409     0.78300
C889        C  0.16144325  0.89946552  0.32143817     0.77300
C890        C  0.10101626  0.84151632  0.43052860     0.77700
C891        C  0.15624622  0.76101674  0.42945570     0.78800
C892        C  0.09922281  0.76491999  0.31902265     0.77900
Zn893      Zn  0.41510096  0.80187317  0.41033399     1.49700
Zn894      Zn  0.46203761  0.86018202  0.35662598     1.49400
Zn895      Zn  0.38462009  0.80316606  0.33958811     1.49100
Zn896      Zn  0.39671428  0.86027213  0.39591896     1.49500
O897        O  0.41554287  0.83339857  0.37552204    -1.83400
O898        O  0.46062787  0.81872331  0.43223325    -0.74000
O899        O  0.46453787  0.84481573  0.30391434    -0.73900
O900        O  0.35634079  0.75470493  0.35732912    -0.73400
O901        O  0.49510007  0.85441488  0.38981937    -0.74100
O902        O  0.39762679  0.75482658  0.39006438    -0.73700
O903        O  0.41091745  0.80193503  0.29802516    -0.74200
O904        O  0.35849110  0.85665846  0.36244374    -0.73600
O905        O  0.47618141  0.91071039  0.36107034    -0.74400
O906        O  0.35537620  0.82029417  0.31962745    -0.73800
O907        O  0.43450204  0.91074858  0.39403839    -0.74200
O908        O  0.37853930  0.84285437  0.44818030    -0.74200
O909        O  0.38561635  0.79757297  0.45136458    -0.73900
C910        C  0.49035265  0.83883517  0.42007905     0.77800
C911        C  0.44110804  0.81966433  0.28570671     0.78300
C912        C  0.36915969  0.73879343  0.37340421     0.77300
C913        C  0.34689765  0.84117267  0.33209916     0.77700
C914        C  0.46352465  0.92663552  0.37792454     0.78800
C915        C  0.37497417  0.81634558  0.46500267     0.77900
C916        C  0.32323164  0.84733641  0.31030916     0.03800
C917        C  0.33067632  0.85737442  0.27377438    -0.12300
C918        C  0.30796133  0.86300401  0.25277670     0.01300
C919        C  0.27658960  0.85657018  0.26837729    -0.10800
C920        C  0.26863511  0.84586425  0.30468430     0.03800
C921        C  0.29261537  0.84191422  0.32554703    -0.10300
H922        H  0.35472298  0.86201029  0.26223695     0.09400
H923        H  0.25865551  0.86061116  0.25255939     0.07000
H924        H  0.28733332  0.83388780  0.35370134     0.06800
C925        C  0.32270424  0.98039733  0.44430673     0.03800
C926        C  0.29075856  0.95619122  0.42961038    -0.12300
C927        C  0.26871585  0.92643176  0.44921711     0.01300
C928        C  0.27817917  0.92164351  0.48395031    -0.10800
C929        C  0.30940070  0.94639920  0.99977461     0.03800
C930        C  0.33148326  0.97558183  0.47973581    -0.10300
H931        H  0.28391172  0.95944109  0.40224204     0.09400
H932        H  0.26102149  0.89836621  0.99851882     0.07000
H933        H  0.35592937  0.49421609  0.99146652     0.06800
C934        C  0.15513678  0.97910459  0.30780600     0.03800
C935        C  0.16005935  0.95391246  0.32378767    -0.12300
C936        C  0.15691992  0.92617503  0.30321222     0.01300
C937        C  0.14778041  0.92364013  0.26645060    -0.10800
C938        C  0.14155770  0.94836071  0.25015828     0.03800
C939        C  0.14640271  0.97666656  0.27079944    -0.10300
H940        H  0.16692466  0.95643492  0.35235292     0.09400
H941        H  0.14431359  0.90169272  0.25090342     0.07000
H942        H  0.14180415  0.49589253  0.25870750     0.06800
C943        C  0.35061036  0.64931764  0.37280318     0.80900
N944        N  0.36800817  0.68412779  0.37345911    -0.77400
C945        C  0.35067163  0.70147961  0.37309962     0.83400
N946        N  0.31596935  0.68406579  0.37287935    -0.77300
C947        C  0.29852747  0.64935285  0.37258402     0.83500
N948        N  0.31582492  0.63196974  0.37220646    -0.79000
C949        C  0.01899892  0.98196678  0.62677461     0.80900
N950        N  0.03631921  0.51690038  0.62652112    -0.77400
C951        C  0.01894741  0.53435002  0.62647838     0.83400
N952        N  0.48405223  0.51661210  0.62656858    -0.77300
C953        C  0.46646539  0.98171128  0.62680932     0.83500
N954        N  0.48407171  0.96450869  0.62690144    -0.79000
C955        C  0.15026109  0.84999697  0.62259394     0.80900
N956        N  0.13279527  0.81524877  0.62212334    -0.77400
C957        C  0.15001410  0.79780964  0.62203746     0.83400
N958        N  0.18479264  0.81517518  0.62262416    -0.77300
C959        C  0.20231969  0.84996238  0.62314558     0.83500
N960        N  0.18501519  0.86733777  0.62310446    -0.79000
C961        C  0.34758911  0.82405142  0.56049828     0.03800
C962        C  0.35601626  0.83070109  0.52348388    -0.12300
C963        C  0.36028536  0.80728695  0.00215195     0.01300
C964        C  0.35397588  0.77603392  0.51792828    -0.10800
C965        C  0.34511792  0.76902402  0.55473041     0.03800
C966        C  0.34259588  0.79367340  0.57591103    -0.10300
H967        H  0.36048934  0.85464458  0.01179684     0.09400
H968        H  0.35690250  0.75751068  0.00188114     0.07000
H969        H  0.33583871  0.78903236  0.60444317     0.06800
Zn970      Zn  0.03766904  0.89687573  0.60676245     1.49700
Zn971      Zn  0.11483585  0.91638266  0.58909321     1.49400
Zn972      Zn  0.10414271  0.96265833  0.64393709     1.49100
Zn973      Zn  0.08473705  0.88500677  0.66014105     1.49500
O974        O  0.08435496  0.91614887  0.62511585    -1.83400
O975        O  0.03447183  0.87849470  0.55432293    -0.74000
O976        O  0.14371879  0.96215653  0.56729809    -0.73900
O977        O  0.06722824  0.97630405  0.64203315    -0.73400
O978        O  0.08758450  0.88799017  0.54866388    -0.74100
O979        O  0.02446009  0.93394514  0.61038252    -0.73700
O980        O  0.14195240  0.99628677  0.60980220    -0.74200
O981        O  0.11400988  0.91150019  0.70099646    -0.73600
O982        O  0.14383796  0.89702567  0.60651005    -0.74400
O983        O  0.12329314  0.96465413  0.69568208    -0.73800
O984        O  0.10362060  0.85626868  0.64056710    -0.74200
O985        O  0.03887969  0.85550490  0.68182548    -0.74200
O986        O  0.00445604  0.85861324  0.64056570    -0.73900
C987        C  0.05745808  0.87609191  0.53630679     0.77800
C988        C  0.15283830  0.99183100  0.57939961     0.78300
C989        C  0.03791328  0.96308213  0.62640801     0.77300
C990        C  0.12604303  0.94168021  0.71338672     0.77700
C991        C  0.13166874  0.86865249  0.62320732     0.78800
C992        C  0.00913405  0.84691214  0.67028994     0.77900
C993        C  0.17679347  0.52147739  0.55757002     0.03800
C994        C  0.20738163  0.54655370  0.57326570    -0.12300
C995        C  0.23141390  0.57489726  0.55301710     0.01300
C996        C  0.22367222  0.57814343  0.51677700    -0.10800
C997        C  0.19235443  0.55334630  0.00065154     0.03800
C998        C  0.16947953  0.52451790  0.52104793    -0.10300
H999        H  0.21247872  0.54351792  0.60142590     0.09400
H1000       H  0.24169495  0.60048103  0.00145904     0.07000
H1001       H  0.14539126  0.00526361  0.00917460     0.06800
C1002       C  0.47960702  0.82332572  0.69240845     0.03800
C1003       C  0.47670318  0.83180131  0.72863944    -0.12300
C1004       C  0.44734718  0.81016287  0.74902779     0.01300
C1005       C  0.42167397  0.77941756  0.73304631    -0.10800
C1006       C  0.42508560  0.77042275  0.69762517     0.03800
C1007       C  0.45398212  0.79255066  0.67722042    -0.08700
H1008       H  0.99646156  0.85579142  0.74021357     0.09400
H1009       H  0.39874172  0.76218818  0.74807255     0.07000
H1010       H  0.45632885  0.78604853  0.64937144     0.06800
Zn1011     Zn  0.29634632  0.62437942  0.64560712     1.49700
Zn1012     Zn  0.32887679  0.70331464  0.64598618     1.49400
Zn1013     Zn  0.37536905  0.67136582  0.64520544     1.49100
Zn1014     Zn  0.33338134  0.66644197  0.57217119     1.49500
O1015       O  0.33335567  0.66624817  0.62621728    -1.83400
O1016       O  0.26514452  0.63228047  0.67868107    -0.74000
O1017       O  0.36719391  0.73339271  0.68071305    -0.73900
O1018       O  0.36804569  0.63377803  0.68031297    -0.73400
O1019       O  0.28236578  0.68695378  0.66718292    -0.74100
O1020       O  0.31347353  0.59544921  0.66875915    -0.73700
O1021       O  0.40551266  0.71814396  0.66628707    -0.74200
O1022       O  0.37241440  0.65881795  0.55306696    -0.73600
O1023       O  0.33428694  0.73456704  0.60634635    -0.74400
O1024       O  0.40044204  0.66545999  0.60486780    -0.73800
O1025       O  0.34071246  0.71326142  0.55437323    -0.74200
O1026       O  0.28661987  0.62708151  0.55390714    -0.74200
O1027       O  0.26583989  0.59782614  0.60515448    -0.73900
C1028       C  0.26067524  0.65798013  0.68021378     0.77800
C1029       C  0.39776005  0.73881900  0.68106822     0.78300
C1030       C  0.34253055  0.60342556  0.68228083     0.77300
C1031       C  0.39733769  0.65983203  0.57083862     0.77700
C1032       C  0.33963338  0.73706129  0.57233772     0.78800
C1033       C  0.26320626  0.60138374  0.57125399     0.77900
Zn1034     Zn  0.30320616  0.91781308  0.65952374     1.49700
Zn1035     Zn  0.36267672  0.96244927  0.60525154     1.49400
Zn1036     Zn  0.36128313  0.89761960  0.64635814     1.49100
Zn1037     Zn  0.30389250  0.88513920  0.59073772     1.49500
O1038       O  0.33483996  0.91683435  0.62576884    -1.83400
O1039       O  0.32024022  0.96473607  0.67795011    -0.74000
O1040       O  0.41294578  0.97516269  0.60852208    -0.73900
O1041       O  0.34313481  0.87991204  0.69857576    -0.73400
O1042       O  0.35938114  0.99783873  0.63727720    -0.74100
O1043       O  0.30004815  0.89046582  0.70254352    -0.73700
O1044       O  0.41225658  0.93460274  0.64412728    -0.74200
O1045       O  0.32140635  0.85681086  0.57002181    -0.73600
O1046       O  0.34569329  0.96306014  0.55308098    -0.74400
O1047       O  0.35709594  0.85896710  0.61308112    -0.73800
O1048       O  0.30064993  0.91032033  0.54930419    -0.74200
O1049       O  0.25602893  0.85566144  0.60947920    -0.74200
O1050       O  0.25546978  0.89794987  0.63939139    -0.73900
C1051       C  0.34240399  0.99406850  0.66632489     0.77800
C1052       C  0.42854272  0.96276435  0.62646415     0.78300
C1053       C  0.31759718  0.87820945  0.71584454     0.77300
C1054       C  0.34191778  0.84790676  0.58248689     0.77700
C1055       C  0.31925634  0.93998605  0.53607359     0.78800
C1056       C  0.23971161  0.86871891  0.62407208     0.77900
C1057       C  0.34920556  0.52378184  0.68858881     0.03800
C1058       C  0.34303448  0.54916945  0.67512656    -0.12300
C1059       C  0.34747883  0.57623813  0.69771595     0.01300
C1060       C  0.35811177  0.57771855  0.73387402    -0.10800
C1061       C  0.36417356  0.55214169  0.74752589     0.03800
C1062       C  0.35988625  0.52539544  0.72476785    -0.10300
H1063       H  0.33472668  0.54783391  0.64717085     0.09400
H1064       H  0.36209873  0.59891657  0.75116109     0.07000
H1065       H  0.36466827  0.00573141  0.73525097     0.06800
C1066       C  0.17597737  0.65465876  0.69001447     0.03800
C1067       C  0.16795236  0.64453343  0.72659516    -0.12300
C1068       C  0.18993787  0.63794192  0.74770662     0.01300
C1069       C  0.22060040  0.64283450  0.73205744    -0.10800
C1070       C  0.22906927  0.65380812  0.69619988     0.03800
C1071       C  0.20658886  0.65947421  0.67504721    -0.10300
H1072       H  0.14406702  0.64049758  0.73799177     0.09400
H1073       H  0.23812610  0.63796064  0.74762323     0.07000
H1074       H  0.21282774  0.66746781  0.64695829     0.06800
Zn1075     Zn  0.11432434  0.69756521  0.65845994     1.49700
Zn1076     Zn  0.08133367  0.69604930  0.58907278     1.49400
Zn1077     Zn  0.10231955  0.63914680  0.60422981     1.49100
Zn1078     Zn  0.03729753  0.63833315  0.64447053     1.49500
O1079       O  0.08276752  0.66566219  0.62390786    -1.83400
O1080       O  0.14402876  0.74442884  0.63764829    -0.74000
O1081       O  0.10808442  0.69768341  0.54671773    -0.73900
O1082       O  0.14164784  0.64513914  0.63722007    -0.73400
O1083       O  0.10163939  0.74442083  0.60731906    -0.74100
O1084       O  0.14276211  0.68043702  0.68023429    -0.73700
O1085       O  0.11923864  0.65511204  0.55135609    -0.74200
O1086       O  0.02496646  0.58809414  0.64294606    -0.73600
O1087       O  0.03460420  0.67857015  0.57009132    -0.74400
O1088       O  0.06587211  0.58826723  0.60837359    -0.73800
O1089       O  0.00174360  0.64053026  0.61169210    -0.74200
O1090       O  0.03686390  0.65705917  0.69576658    -0.74200
O1091       O  0.08924558  0.70277193  0.69922342    -0.73900
C1092       C  0.13105904  0.76044547  0.62220133     0.77800
C1093       C  0.12039841  0.68014638  0.53363791     0.78300
C1094       C  0.15237954  0.66044104  0.66778202     0.77300
C1095       C  0.03767426  0.57225731  0.62598860     0.77700
C1096       C  0.00534725  0.65669723  0.58206747     0.78800
C1097       C  0.05953348  0.68409273  0.71235692     0.77900
C1098       C  0.47544022  0.65020923  0.56031359     0.03800
C1099       C  0.47340919  0.64071211  0.52376636    -0.12300
C1100       C  0.44677942  0.63772458  0.00166959     0.01300
C1101       C  0.42199132  0.64473516  0.51627197    -0.10800
C1102       C  0.42354431  0.65381617  0.55324484     0.03800
C1103       C  0.45049231  0.65622037  0.57496142    -0.10300
H1104       H  0.99263448  0.63566443  0.01247767     0.09400
H1105       H  0.40108790  0.64195901  0.99929467     0.07000
H1106       H  0.45281587  0.66366191  0.60333770     0.06800
C1107       C  0.48321094  0.51706068  0.87653742     0.80900
N1108       N  0.01799743  0.53422273  0.87444535    -0.77400
C1109       C  0.03540101  0.51683455  0.87502374     0.83400
N1110       N  0.01766559  0.98195434  0.87660721    -0.77300
C1111       C  0.48278162  0.96451817  0.87817779     0.83500
N1112       N  0.46569765  0.98223979  0.87860967    -0.79000
Zn1113     Zn  0.14027182  0.53759046  0.89380969     1.49700
Zn1114     Zn  0.19789503  0.61549963  0.90954313     1.49400
Zn1115     Zn  0.19697274  0.58372359  0.83882677     1.49100
Zn1116     Zn  0.13900711  0.60227816  0.85455186     1.49500
O1117       O  0.16655438  0.58387567  0.87448009    -1.83400
O1118       O  0.15748248  0.53639380  0.94603419    -0.74000
O1119       O  0.24572587  0.64370215  0.89005259    -0.73900
O1120       O  0.18002127  0.53817498  0.81715576    -0.73400
O1121       O  0.20065271  0.59003165  0.95159205    -0.74100
O1122       O  0.14516490  0.50400668  0.86020687    -0.73700
O1123       O  0.24483365  0.60217385  0.85703313    -0.74200
O1124       O  0.15456965  0.61992989  0.80187408    -0.73600
O1125       O  0.18110194  0.64517970  0.92932822    -0.74400
O1126       O  0.19930048  0.61213584  0.79803994    -0.73800
O1127       O  0.14332073  0.64085156  0.88759137    -0.74200
O1128       O  0.08881385  0.56461817  0.85788265    -0.74200
O1129       O  0.08950246  0.52332394  0.89096441    -0.73900
C1130       C  0.18295045  0.55982233  0.96397758     0.77800
C1131       C  0.26123946  0.63084474  0.87325514     0.78300
C1132       C  0.16019146  0.50852325  0.82960003     0.77300
C1133       C  0.18065556  0.62302069  0.78467700     0.77700
C1134       C  0.15969806  0.65317730  0.91731728     0.78800
C1135       C  0.07325591  0.53583927  0.87446502     0.77900
C1136       C  0.15326610  0.67647919  0.93931262     0.03800
C1137       C  0.15813463  0.70714843  0.92443526    -0.12300
C1138       C  0.15188661  0.72931995  0.94545800     0.01300
C1139       C  0.14008098  0.72036808  0.98106380    -0.10800
C1140       C  0.13525678  0.68967829  0.49663456     0.03800
C1141       C  0.14250248  0.66808002  0.97565902    -0.10300
H1142       H  0.16666114  0.71368823  0.89652965     0.09400
H1143       H  0.13473275  0.73759562  0.49657347     0.07000
H1144       H  0.13858858  0.64421530  0.48700589     0.06800
C1145       C  0.01923522  0.67823109  0.80442402     0.03800
C1146       C  0.04295816  0.70993979  0.81967877    -0.12300
C1147       C  0.07221716  0.73374251  0.80013140     0.01300
C1148       C  0.07653574  0.72569681  0.76436455    -0.10800
C1149       C  0.05259343  0.69396273  0.74843610     0.03800
C1150       C  0.02405313  0.67062100  0.76861609    -0.10300
H1151       H  0.03925916  0.71537142  0.84747757     0.09400
H1152       H  0.09923390  0.74362239  0.74946884     0.07000
H1153       H  0.50598311  0.64602585  0.75673723     0.06800
Zn1154     Zn  0.42414571  0.56263928  0.91678011     1.49700
Zn1155     Zn  0.43845453  0.57585059  0.83305634     1.49400
Zn1156     Zn  0.36766610  0.56387830  0.86501520     1.49100
Zn1157     Zn  0.43582243  0.63262205  0.88362887     1.49500
O1158       O  0.41661262  0.58365858  0.87455976    -1.83400
O1159       O  0.45502517  0.54277285  0.90605763    -0.74000
O1160       O  0.40672804  0.55883602  0.78962798    -0.73900
O1161       O  0.33891125  0.52110434  0.89570791    -0.73400
O1162       O  0.45841992  0.54538957  0.84557051    -0.74100
O1163       O  0.37937979  0.52372699  0.93240334    -0.73700
O1164       O  0.35909857  0.55567461  0.81112838    -0.74200
O1165       O  0.40183289  0.64732219  0.87154090    -0.73600
O1166       O  0.47700210  0.62088997  0.81647934    -0.74400
O1167       O  0.35256093  0.59801344  0.87537191    -0.73800
O1168       O  0.47852235  0.66106182  0.85293954    -0.74200
O1169       O  0.44320202  0.64231533  0.93769489    -0.74200
O1170       O  0.43947911  0.59468737  0.95994700    -0.73900
C1171       C  0.46459865  0.53606525  0.87604213     0.77800
C1172       C  0.37701513  0.55493428  0.78481717     0.78300
C1173       C  0.34813473  0.50986214  0.92275149     0.77300
C1174       C  0.36928014  0.63057285  0.87320820     0.77700
C1175       C  0.49016286  0.65214840  0.82598153     0.78800
C1176       C  0.44336824  0.62445983  0.96439054     0.77900
C1177       C  0.01969876  0.84425759  0.94209856     0.03800
C1178       C  0.02216843  0.85418971  0.97882543    -0.12300
C1179       C  0.05106361  0.86080867  0.49946250     0.01300
C1180       C  0.07662198  0.85596093  0.98328175    -0.10800
C1181       C  0.07369016  0.84521562  0.94727050     0.03800
C1182       C  0.04532358  0.83958759  0.92654715    -0.10300
H1183       H  0.50249155  0.85825166  0.49063196     0.09400
H1184       H  0.09925300  0.86085341  0.49848772     0.07000
H1185       H  0.04332033  0.83184511  0.89829450     0.06800
Zn1186     Zn  0.16596806  0.83425567  0.82179679     1.49700
Zn1187     Zn  0.20253082  0.82991034  0.89596952     1.49400
Zn1188     Zn  0.17000513  0.87590743  0.89545389     1.49100
Zn1189     Zn  0.12286482  0.79649760  0.89369076     1.49500
O1190       O  0.16535813  0.83407378  0.87574164    -1.83400
O1191       O  0.21269598  0.84109567  0.80419753    -0.74000
O1192       O  0.23272378  0.86878839  0.93042741    -0.73900
O1193       O  0.16586166  0.90215741  0.85560071    -0.73400
O1194       O  0.23403581  0.83505439  0.85634614    -0.74100
O1195       O  0.16034634  0.87446610  0.80374664    -0.73700
O1196       O  0.21605542  0.90640448  0.91817216    -0.74200
O1197       O  0.09362001  0.81271524  0.91691436    -0.73600
O1198       O  0.18567761  0.78339073  0.91793021    -0.74400
O1199       O  0.13110639  0.86747595  0.92879720    -0.73800
O1200       O  0.13020285  0.76473740  0.92621135    -0.74200
O1201       O  0.09576886  0.76684400  0.85301909    -0.74200
O1202       O  0.12545998  0.78830137  0.80224873    -0.73900
C1203       C  0.23655335  0.84022845  0.82226972     0.77800
C1204       C  0.23731915  0.89904830  0.93211403     0.78300
C1205       C  0.16144321  0.89946553  0.82143817     0.77300
C1206       C  0.10101623  0.84151633  0.93052854     0.77700
C1207       C  0.15624616  0.76101673  0.92945560     0.78800
C1208       C  0.09922286  0.76492002  0.81902264     0.77900
Zn1209     Zn  0.41510097  0.80187325  0.91033396     1.49700
Zn1210     Zn  0.46203758  0.86018196  0.85662597     1.49400
Zn1211     Zn  0.38462008  0.80316612  0.83958807     1.49100
Zn1212     Zn  0.39671429  0.86027221  0.89591890     1.49500
O1213       O  0.41554288  0.83339858  0.87552200    -1.83400
O1214       O  0.46062783  0.81872324  0.93223325    -0.74000
O1215       O  0.46453801  0.84481571  0.80391438    -0.73900
O1216       O  0.35634073  0.75470491  0.85732904    -0.73400
O1217       O  0.49510010  0.85441503  0.88981956    -0.74100
O1218       O  0.39762676  0.75482666  0.89006432    -0.73700
O1219       O  0.41091754  0.80193515  0.79802521    -0.74200
O1220       O  0.35849111  0.85665852  0.86244363    -0.73600
O1221       O  0.47618129  0.91071031  0.86107029    -0.74400
O1222       O  0.35537611  0.82029410  0.81962744    -0.73800
O1223       O  0.43450200  0.91074865  0.89403835    -0.74200
O1224       O  0.37853928  0.84285443  0.94818031    -0.74200
O1225       O  0.38561636  0.79757304  0.95136453    -0.73900
C1226       C  0.49035263  0.83883519  0.92007916     0.77800
C1227       C  0.44110813  0.81966431  0.78570677     0.78300
C1228       C  0.36915967  0.73879345  0.87340415     0.77300
C1229       C  0.34689761  0.84117264  0.83209911     0.77700
C1230       C  0.46352461  0.92663552  0.87792448     0.78800
C1231       C  0.37497416  0.81634561  0.96500263     0.77900
C1232       C  0.32323159  0.84733632  0.81030914     0.03800
C1233       C  0.33067626  0.85737429  0.77377435    -0.12300
C1234       C  0.30796133  0.86300397  0.75277673     0.01300
C1235       C  0.27658965  0.85657026  0.76837736    -0.10800
C1236       C  0.26863513  0.84586424  0.80468435     0.03800
C1237       C  0.29261540  0.84191426  0.82554703    -0.10300
H1238       H  0.35472289  0.86201009  0.76223690     0.09400
H1239       H  0.25865562  0.86061139  0.75255955     0.07000
H1240       H  0.28733342  0.83388794  0.85370150     0.06800
C1241       C  0.32270416  0.98039730  0.94430673     0.03800
C1242       C  0.29075850  0.95619118  0.92961037    -0.12300
C1243       C  0.26871587  0.92643171  0.94921706     0.01300
C1244       C  0.27817918  0.92164339  0.98395026    -0.10800
C1245       C  0.30940068  0.94639925  0.49977463     0.03800
C1246       C  0.33148315  0.97558177  0.97973579    -0.10300
H1247       H  0.28391166  0.95944106  0.90224201     0.09400
H1248       H  0.26102143  0.89836634  0.49851898     0.07000
H1249       H  0.35592931  0.49421606  0.49146664     0.06800
C1250       C  0.15513673  0.97910455  0.80780608     0.03800
C1251       C  0.16005947  0.95391252  0.82378772    -0.12300
C1252       C  0.15691988  0.92617502  0.80321228     0.01300
C1253       C  0.14778026  0.92364004  0.76645069    -0.10800
C1254       C  0.14155760  0.94836065  0.75015835     0.03800
C1255       C  0.14640258  0.97666646  0.77079954    -0.10300
H1256       H  0.16692497  0.95643507  0.85235294     0.09400
H1257       H  0.14431339  0.90169260  0.75090353     0.07000
H1258       H  0.14180432  0.49589269  0.75870754     0.06800
C1259       C  0.35061040  0.64931762  0.87280312     0.80900
N1260       N  0.36800822  0.68412781  0.87345905    -0.77400
C1261       C  0.35067166  0.70147961  0.87309957     0.83400
N1262       N  0.31596939  0.68406578  0.87287929    -0.77300
C1263       C  0.29852751  0.64935285  0.87258394     0.83500
N1264       N  0.31582497  0.63196972  0.87220639    -0.79000
C1265       C  0.51899893  0.48196677  0.12677460     0.80900
N1266       N  0.53631921  0.01690038  0.12652100    -0.77400
C1267       C  0.51894742  0.03435004  0.12647837     0.83400
N1268       N  0.98405224  0.01661211  0.12656865    -0.77300
C1269       C  0.96646540  0.48171128  0.12680936     0.83500
N1270       N  0.98407173  0.46450868  0.12690151    -0.79000
C1271       C  0.65026108  0.34999696  0.12259394     0.80900
N1272       N  0.63279528  0.31524877  0.12212323    -0.77400
C1273       C  0.65001411  0.29780964  0.12203746     0.83400
N1274       N  0.68479266  0.31517520  0.12262423    -0.77300
C1275       C  0.70231969  0.34996240  0.12314564     0.83500
N1276       N  0.68501518  0.36733778  0.12310453    -0.79000
C1277       C  0.84758914  0.32405148  0.06049821     0.03800
C1278       C  0.85601625  0.33070111  0.02348381    -0.12300
C1279       C  0.86028535  0.30728695  0.50215199     0.01300
C1280       C  0.85397584  0.27603390  0.01792825    -0.10800
C1281       C  0.84511787  0.26902402  0.05473041     0.03800
C1282       C  0.84259589  0.29367345  0.07591098    -0.10300
H1283       H  0.86048941  0.35464466  0.51179695     0.09400
H1284       H  0.85690259  0.25751072  0.50188116     0.07000
H1285       H  0.83583875  0.28903250  0.10444312     0.06800
Zn1286     Zn  0.53766903  0.39687571  0.10676251     1.49700
Zn1287     Zn  0.61483585  0.41638267  0.08909325     1.49400
Zn1288     Zn  0.60414273  0.46265834  0.14393713     1.49100
Zn1289     Zn  0.58473704  0.38500675  0.16014111     1.49500
O1290       O  0.58435495  0.41614885  0.12511591    -1.83400
O1291       O  0.53447187  0.37849474  0.05432296    -0.74000
O1292       O  0.64371877  0.46215658  0.06729806    -0.73900
O1293       O  0.56722823  0.47630402  0.14203321    -0.73400
O1294       O  0.58758454  0.38799021  0.04866390    -0.74100
O1295       O  0.52446008  0.43394511  0.11038258    -0.73700
O1296       O  0.64195251  0.49628688  0.10980218    -0.74200
O1297       O  0.61400985  0.41150015  0.20099648    -0.73600
O1298       O  0.64383795  0.39702565  0.10651011    -0.74400
O1299       O  0.62329312  0.46465410  0.19568210    -0.73800
O1300       O  0.60362060  0.35626865  0.14056715    -0.74200
O1301       O  0.53887969  0.35550488  0.18182554    -0.74200
O1302       O  0.50445604  0.35861322  0.14056576    -0.73900
C1303       C  0.55745811  0.37609196  0.03630681     0.77800
C1304       C  0.65283833  0.49183107  0.07939956     0.78300
C1305       C  0.53791328  0.46308211  0.12640805     0.77300
C1306       C  0.62604301  0.44168018  0.21338673     0.77700
C1307       C  0.63166873  0.36865247  0.12320737     0.78800
C1308       C  0.50913404  0.34691212  0.17029001     0.77900
C1309       C  0.67679347  0.02147737  0.05756993     0.03800
C1310       C  0.70738162  0.04655368  0.07326566    -0.12300
C1311       C  0.73141388  0.07489722  0.05301700     0.01300
C1312       C  0.72367219  0.07814338  0.01677692    -0.10800
C1313       C  0.69235442  0.05334628  0.50065162     0.03800
C1314       C  0.66947953  0.02451786  0.02104785    -0.10300
H1315       H  0.71247869  0.04351793  0.10142573     0.09400
H1316       H  0.74169492  0.10048113  0.50145918     0.07000
H1317       H  0.64539125  0.50526366  0.50917468     0.06800
C1318       C  0.97960702  0.32332569  0.19240850     0.03800
C1319       C  0.97670317  0.33180130  0.22863947    -0.12300
C1320       C  0.94734713  0.31016289  0.24902775     0.01300
C1321       C  0.92167393  0.27941754  0.23304634    -0.10800
C1322       C  0.92508559  0.27042271  0.19762523     0.03800
C1323       C  0.95398210  0.29255064  0.17722051    -0.08700
H1324       H  0.49646154  0.35579138  0.24021362     0.09400
H1325       H  0.89874170  0.26218817  0.24807257     0.07000
H1326       H  0.95632882  0.28604850  0.14937144     0.06800
Zn1327     Zn  0.79634631  0.12437940  0.14560702     1.49700
Zn1328     Zn  0.82887685  0.20331476  0.14598623     1.49400
Zn1329     Zn  0.87536903  0.17136579  0.14520549     1.49100
Zn1330     Zn  0.83338130  0.16644194  0.07217122     1.49500
O1331       O  0.83335567  0.16624820  0.12621732    -1.83400
O1332       O  0.76514456  0.13228050  0.17868108    -0.74000
O1333       O  0.86719388  0.23339275  0.18071315    -0.73900
O1334       O  0.86804568  0.13377801  0.18031302    -0.73400
O1335       O  0.78236581  0.18695383  0.16718299    -0.74100
O1336       O  0.81347352  0.09544920  0.16875916    -0.73700
O1337       O  0.90551257  0.21814392  0.16628710    -0.74200
O1338       O  0.87241438  0.15881792  0.05306701    -0.73600
O1339       O  0.83428696  0.23456710  0.10634638    -0.74400
O1340       O  0.90044204  0.16545997  0.10486783    -0.73800
O1341       O  0.84071246  0.21326144  0.05437329    -0.74200
O1342       O  0.78661977  0.12708153  0.05390709    -0.74200
O1343       O  0.76583988  0.09782611  0.10515439    -0.73900
C1344       C  0.76067527  0.15798017  0.18021384     0.77800
C1345       C  0.89776000  0.23881899  0.18106828     0.78300
C1346       C  0.84253055  0.10342554  0.18228084     0.77300
C1347       C  0.89733768  0.15983201  0.07083865     0.77700
C1348       C  0.83963336  0.23706131  0.07233774     0.78800
C1349       C  0.76320620  0.10138372  0.07125392     0.77900
Zn1350     Zn  0.80320617  0.41781311  0.15952372     1.49700
Zn1351     Zn  0.86267672  0.46244927  0.10525156     1.49400
Zn1352     Zn  0.86128320  0.39761972  0.14635815     1.49100
Zn1353     Zn  0.80389249  0.38513919  0.09073759     1.49500
O1354       O  0.83483993  0.41683433  0.12576874    -1.83400
O1355       O  0.82024025  0.46473610  0.17795017    -0.74000
O1356       O  0.91294580  0.47516263  0.10852198    -0.73900
O1357       O  0.84313484  0.37991205  0.19857570    -0.73400
O1358       O  0.85938116  0.49783874  0.13727725    -0.74100
O1359       O  0.80004824  0.39046591  0.20254345    -0.73700
O1360       O  0.91225660  0.43460280  0.14412734    -0.74200
O1361       O  0.82140630  0.35681082  0.07002177    -0.73600
O1362       O  0.84569335  0.46306019  0.05308101    -0.74400
O1363       O  0.85709601  0.35896718  0.11308106    -0.73800
O1364       O  0.80064994  0.41032040  0.04930419    -0.74200
O1365       O  0.75602892  0.35566155  0.10947912    -0.74200
O1366       O  0.75546976  0.39794993  0.13939139    -0.73900
C1367       C  0.84240404  0.49406852  0.16632494     0.77800
C1368       C  0.92854274  0.46276435  0.12646413     0.78300
C1369       C  0.81759721  0.37820947  0.21584447     0.77300
C1370       C  0.84191781  0.34790680  0.08248684     0.77700
C1371       C  0.81925639  0.43998611  0.03607360     0.78800
C1372       C  0.73971159  0.36871897  0.12407209     0.77900
C1373       C  0.84920556  0.02378182  0.18858886     0.03800
C1374       C  0.84303448  0.04916941  0.17512659    -0.12300
C1375       C  0.84747884  0.07623810  0.19771595     0.01300
C1376       C  0.85811177  0.07771855  0.23387405    -0.10800
C1377       C  0.86417355  0.05214167  0.24752593     0.03800
C1378       C  0.85988626  0.02539541  0.22476792    -0.10300
H1379       H  0.83472666  0.04783384  0.14717085     0.09400
H1380       H  0.86209871  0.09891652  0.25116106     0.07000
H1381       H  0.86466830  0.50573144  0.23525103     0.06800
C1382       C  0.67597742  0.15465885  0.19001453     0.03800
C1383       C  0.66795237  0.14453345  0.22659521    -0.12300
C1384       C  0.68993786  0.13794190  0.24770667     0.01300
C1385       C  0.72060040  0.14283448  0.23205749    -0.10800
C1386       C  0.72906929  0.15380813  0.19619994     0.03800
C1387       C  0.70658889  0.15947424  0.17504727    -0.10300
H1388       H  0.64406701  0.14049756  0.23799179     0.09400
H1389       H  0.73812609  0.13796062  0.24762328     0.07000
H1390       H  0.71282775  0.16746778  0.14695833     0.06800
Zn1391     Zn  0.61432433  0.19756519  0.15845998     1.49700
Zn1392     Zn  0.58133365  0.19604927  0.08907281     1.49400
Zn1393     Zn  0.60231956  0.13914680  0.10422987     1.49100
Zn1394     Zn  0.53729751  0.13833313  0.14447058     1.49500
O1395       O  0.58276752  0.16566217  0.12390792    -1.83400
O1396       O  0.64402876  0.24442883  0.13764834    -0.74000
O1397       O  0.60808444  0.19768339  0.04671777    -0.73900
O1398       O  0.64164784  0.14513908  0.13722011    -0.73400
O1399       O  0.60163939  0.24442081  0.10731911    -0.74100
O1400       O  0.64276211  0.18043705  0.18023422    -0.73700
O1401       O  0.61923865  0.15511203  0.05135612    -0.74200
O1402       O  0.52496635  0.08809411  0.14294607    -0.73600
O1403       O  0.53460418  0.17857009  0.07009124    -0.74400
O1404       O  0.56587210  0.08826731  0.10837371    -0.73800
O1405       O  0.50174364  0.14053030  0.11169213    -0.74200
O1406       O  0.53686390  0.15705915  0.19576662    -0.74200
O1407       O  0.58924559  0.20277190  0.19922347    -0.73900
C1408       C  0.63105905  0.26044547  0.12220137     0.77800
C1409       C  0.62039843  0.18014638  0.03363794     0.78300
C1410       C  0.65237956  0.16044105  0.16778202     0.77300
C1411       C  0.53767422  0.07225733  0.12598865     0.77700
C1412       C  0.50534725  0.15669722  0.08206747     0.78800
C1413       C  0.55953348  0.18409271  0.21235695     0.77900
C1414       C  0.97544020  0.15020919  0.06031362     0.03800
C1415       C  0.97340918  0.14071207  0.02376641    -0.12300
C1416       C  0.94677946  0.13772461  0.50166958     0.01300
C1417       C  0.92199132  0.14473514  0.01627198    -0.10800
C1418       C  0.92354430  0.15381616  0.05324484     0.03800
C1419       C  0.95049229  0.15622037  0.07496148    -0.10300
H1420       H  0.49263452  0.13566446  0.51247765     0.09400
H1421       H  0.90108798  0.14195902  0.49929474     0.07000
H1422       H  0.95281585  0.16366188  0.10333764     0.06800
C1423       C  0.98321094  0.01706065  0.37653741     0.80900
N1424       N  0.51799743  0.03422272  0.37444542    -0.77400
C1425       C  0.53540102  0.01683453  0.37502380     0.83400
N1426       N  0.51766557  0.48195437  0.37660729    -0.77300
C1427       C  0.98278158  0.46451819  0.37817781     0.83500
N1428       N  0.96569758  0.48223976  0.37860957    -0.79000
Zn1429     Zn  0.64027181  0.03759043  0.39380972     1.49700
Zn1430     Zn  0.69789503  0.11549963  0.40954320     1.49400
Zn1431     Zn  0.69697274  0.08372358  0.33882683     1.49100
Zn1432     Zn  0.63900710  0.10227814  0.35455192     1.49500
O1433       O  0.66655437  0.08387565  0.37448015    -1.83400
O1434       O  0.65748248  0.03639377  0.44603424    -0.74000
O1435       O  0.74572588  0.14370216  0.39005265    -0.73900
O1436       O  0.68002132  0.03817500  0.31715577    -0.73400
O1437       O  0.70065270  0.09003162  0.45159212    -0.74100
O1438       O  0.64516485  0.00400663  0.36020679    -0.73700
O1439       O  0.74483366  0.10217387  0.35703318    -0.74200
O1440       O  0.65456965  0.11992986  0.30187414    -0.73600
O1441       O  0.68110204  0.14517982  0.42932824    -0.74400
O1442       O  0.69930048  0.11213582  0.29803999    -0.73800
O1443       O  0.64332072  0.14085152  0.38759146    -0.74200
O1444       O  0.58881386  0.06461815  0.35788271    -0.74200
O1445       O  0.58950246  0.02332392  0.39096448    -0.73900
C1446       C  0.68295045  0.05982229  0.46397764     0.77800
C1447       C  0.76123947  0.13084477  0.37325520     0.78300
C1448       C  0.66019147  0.00852325  0.32959998     0.77300
C1449       C  0.68065555  0.12302067  0.28467705     0.77700
C1450       C  0.65969808  0.15317733  0.41731734     0.78800
C1451       C  0.57325591  0.03583926  0.37446509     0.77900
C1452       C  0.65326608  0.17647918  0.43931266     0.03800
C1453       C  0.65813463  0.20714842  0.42443531    -0.12300
C1454       C  0.65188661  0.22931993  0.44545805     0.01300
C1455       C  0.64008099  0.22036807  0.48106384    -0.10800
C1456       C  0.63525677  0.18967829  0.99663455     0.03800
C1457       C  0.64250246  0.16807998  0.47565905    -0.10300
H1458       H  0.66666114  0.21368821  0.39652971     0.09400
H1459       H  0.63473268  0.23759556  0.99657339     0.07000
H1460       H  0.63858850  0.14421526  0.98700587     0.06800
C1461       C  0.51923517  0.17823105  0.30442399     0.03800
C1462       C  0.54295814  0.20993973  0.31967875    -0.12300
C1463       C  0.57221714  0.23374247  0.30013140     0.01300
C1464       C  0.57653573  0.22569678  0.26436457    -0.10800
C1465       C  0.55259343  0.19396271  0.24843611     0.03800
C1466       C  0.52405308  0.17062097  0.26861605    -0.10300
H1467       H  0.53925915  0.21537135  0.34747755     0.09400
H1468       H  0.59923392  0.24362241  0.24946887     0.07000
H1469       H  0.00598310  0.14602587  0.25673717     0.06800
Zn1470     Zn  0.92414571  0.06263926  0.41678001     1.49700
Zn1471     Zn  0.93845460  0.07585071  0.33305640     1.49400
Zn1472     Zn  0.86766609  0.06387828  0.36501525     1.49100
Zn1473     Zn  0.93582242  0.13262202  0.38362887     1.49500
O1474       O  0.91661263  0.08365860  0.37455976    -1.83400
O1475       O  0.95502517  0.04277283  0.40605767    -0.74000
O1476       O  0.90672805  0.05883603  0.28962804    -0.73900
O1477       O  0.83891120  0.02110432  0.39570795    -0.73400
O1478       O  0.95841992  0.04538959  0.34557056    -0.74100
O1479       O  0.87937982  0.02372695  0.43240323    -0.73700
O1480       O  0.85909856  0.05567459  0.31112843    -0.74200
O1481       O  0.90183289  0.14732217  0.37154075    -0.73600
O1482       O  0.97700213  0.12088999  0.31647936    -0.74400
O1483       O  0.85256094  0.09801345  0.37537199    -0.73800
O1484       O  0.97852237  0.16106181  0.35293957    -0.74200
O1485       O  0.94320202  0.14231529  0.43769485    -0.74200
O1486       O  0.93947908  0.09468734  0.45994698    -0.73900
C1487       C  0.96459864  0.03606523  0.37604216     0.77800
C1488       C  0.87701513  0.05493427  0.28481723     0.78300
C1489       C  0.84813473  0.00986211  0.42275148     0.77300
C1490       C  0.86928014  0.13057284  0.37320815     0.77700
C1491       C  0.99016286  0.15214840  0.32598153     0.78800
C1492       C  0.94336824  0.12445981  0.46439051     0.77900
C1493       C  0.51969881  0.34425763  0.44209844     0.03800
C1494       C  0.52216843  0.35418971  0.47882532    -0.12300
C1495       C  0.55106363  0.36080870  0.99946254     0.01300
C1496       C  0.57662196  0.35596090  0.48328178    -0.10800
C1497       C  0.57369019  0.34521565  0.44727051     0.03800
C1498       C  0.54532369  0.33958770  0.42654709    -0.10300
H1499       H  0.00249162  0.35825166  0.99063209     0.09400
H1500       H  0.59925305  0.36085346  0.99848767     0.07000
H1501       H  0.54332051  0.33184527  0.39829438     0.06800
Zn1502     Zn  0.66596805  0.33425564  0.32179666     1.49700
Zn1503     Zn  0.70253080  0.32991031  0.39596955     1.49400
Zn1504     Zn  0.67000513  0.37590741  0.39545392     1.49100
Zn1505     Zn  0.62286483  0.29649758  0.39369079     1.49500
O1506       O  0.66535811  0.33407376  0.37574153    -1.83400
O1507       O  0.71269599  0.34109565  0.30419755    -0.74000
O1508       O  0.73272377  0.36878836  0.43042746    -0.73900
O1509       O  0.66586165  0.40215741  0.35560072    -0.73400
O1510       O  0.73403582  0.33505437  0.35634617    -0.74100
O1511       O  0.66034634  0.37446608  0.30374665    -0.73700
O1512       O  0.71605542  0.40640446  0.41817222    -0.74200
O1513       O  0.59362007  0.31271529  0.41691443    -0.73600
O1514       O  0.68567760  0.28339071  0.41793027    -0.74400
O1515       O  0.63110640  0.36747601  0.42879724    -0.73800
O1516       O  0.63020285  0.26473738  0.42621140    -0.74200
O1517       O  0.59576885  0.26684398  0.35301910    -0.74200
O1518       O  0.62545995  0.28830134  0.30224871    -0.73900
C1519       C  0.73655336  0.34022844  0.32226974     0.77800
C1520       C  0.73731914  0.39904827  0.43211408     0.78300
C1521       C  0.66144320  0.39946552  0.32143817     0.77300
C1522       C  0.60101627  0.34151637  0.43052860     0.77700
C1523       C  0.65624615  0.26101671  0.42945566     0.78800
C1524       C  0.59922285  0.26491999  0.31902264     0.77900
Zn1525     Zn  0.91510096  0.30187323  0.41033401     1.49700
Zn1526     Zn  0.96203757  0.36018197  0.35662597     1.49400
Zn1527     Zn  0.88462009  0.30316612  0.33958811     1.49100
Zn1528     Zn  0.89671429  0.36027220  0.39591895     1.49500
O1529       O  0.91554288  0.33339855  0.37552205    -1.83400
O1530       O  0.96062785  0.31872326  0.43223321    -0.74000
O1531       O  0.96453800  0.34481574  0.30391432    -0.73900
O1532       O  0.85634072  0.25470489  0.35732909    -0.73400
O1533       O  0.99510007  0.35441495  0.38981943    -0.74100
O1534       O  0.89762676  0.25482664  0.39006438    -0.73700
O1535       O  0.91091752  0.30193518  0.29802517    -0.74200
O1536       O  0.85849107  0.35665851  0.36244373    -0.73600
O1537       O  0.97618135  0.41071037  0.36107034    -0.74400
O1538       O  0.85537621  0.32029421  0.31962746    -0.73800
O1539       O  0.93450202  0.41074864  0.39403839    -0.74200
O1540       O  0.87853926  0.34285440  0.44818033    -0.74200
O1541       O  0.88561634  0.29757302  0.45136455    -0.73900
C1542       C  0.99035265  0.33883516  0.42007905     0.77800
C1543       C  0.94110810  0.31966436  0.28570671     0.78300
C1544       C  0.86915967  0.23879344  0.37340422     0.77300
C1545       C  0.84689763  0.34117269  0.33209916     0.77700
C1546       C  0.96352463  0.42663555  0.37792453     0.78800
C1547       C  0.87497412  0.31634558  0.46500265     0.77900
C1548       C  0.82323159  0.34733634  0.31030915     0.03800
C1549       C  0.83067624  0.35737427  0.27377434    -0.12300
C1550       C  0.80796130  0.36300392  0.25277667     0.01300
C1551       C  0.77658961  0.35657020  0.26837730    -0.10800
C1552       C  0.76863512  0.34586423  0.30468432     0.03800
C1553       C  0.79261538  0.34191424  0.32554705    -0.10300
H1554       H  0.85472289  0.36201010  0.26223690     0.09400
H1555       H  0.75865559  0.36061131  0.25255948     0.07000
H1556       H  0.78733341  0.33388794  0.35370144     0.06800
C1557       C  0.82270416  0.48039728  0.44430675     0.03800
C1558       C  0.79075849  0.45619116  0.42961042    -0.12300
C1559       C  0.76871585  0.42643168  0.44921710     0.01300
C1560       C  0.77817916  0.42164335  0.48395030    -0.10800
C1561       C  0.80940078  0.44639926  0.99977458     0.03800
C1562       C  0.83148317  0.47558177  0.47973582    -0.10300
H1563       H  0.78391164  0.45944103  0.40224205     0.09400
H1564       H  0.76102152  0.39836633  0.99851891     0.07000
H1565       H  0.85592932  0.99421611  0.99146662     0.06800
C1566       C  0.65513672  0.47910454  0.30780599     0.03800
C1567       C  0.66005944  0.45391250  0.32378765    -0.12300
C1568       C  0.65691988  0.42617500  0.30321223     0.01300
C1569       C  0.64778029  0.42364003  0.26645064    -0.10800
C1570       C  0.64155760  0.44836062  0.25015831     0.03800
C1571       C  0.64640259  0.47666646  0.27079946    -0.10300
H1572       H  0.66692490  0.45643504  0.35235283     0.09400
H1573       H  0.64431344  0.40169260  0.25090348     0.07000
H1574       H  0.64180430  0.99589266  0.25870749     0.06800
C1575       C  0.85061042  0.14931764  0.37280306     0.80900
N1576       N  0.86800824  0.18412781  0.37345905    -0.77400
C1577       C  0.85067167  0.20147962  0.37309964     0.83400
N1578       N  0.81596940  0.18406579  0.37287935    -0.77300
C1579       C  0.79852753  0.14935286  0.37258400     0.83500
N1580       N  0.81582498  0.13196973  0.37220639    -0.79000
C1581       C  0.51899891  0.48196677  0.62677462     0.80900
N1582       N  0.53631920  0.01690041  0.62652111    -0.77400
C1583       C  0.51894738  0.03435003  0.62647838     0.83400
N1584       N  0.98405220  0.01661208  0.62656858    -0.77300
C1585       C  0.96646539  0.48171131  0.62680933     0.83500
N1586       N  0.98407169  0.46450868  0.62690145    -0.79000
C1587       C  0.65026101  0.34999693  0.62259392     0.80900
N1588       N  0.63279520  0.31524874  0.62212333    -0.77400
C1589       C  0.65001403  0.29780961  0.62203744     0.83400
N1590       N  0.68479258  0.31517518  0.62262416    -0.77300
C1591       C  0.70231962  0.34996238  0.62314559     0.83500
N1592       N  0.68501511  0.36733775  0.62310445    -0.79000
C1593       C  0.84758909  0.32405141  0.56049826     0.03800
C1594       C  0.85601634  0.33070111  0.52348389    -0.12300
C1595       C  0.86028534  0.30728698  0.00215197     0.01300
C1596       C  0.85397592  0.27603388  0.51792825    -0.10800
C1597       C  0.84511793  0.26902401  0.55473041     0.03800
C1598       C  0.84259583  0.29367337  0.57591101    -0.10300
H1599       H  0.86048924  0.35464463  0.01179680     0.09400
H1600       H  0.85690247  0.25751070  0.00188112     0.07000
H1601       H  0.83583863  0.28903236  0.60444310     0.06800
Zn1602     Zn  0.53766902  0.39687579  0.60676245     1.49700
Zn1603     Zn  0.61483595  0.41638273  0.58909322     1.49400
Zn1604     Zn  0.60414276  0.46265825  0.64393708     1.49100
Zn1605     Zn  0.58473708  0.38500668  0.66014106     1.49500
O1606       O  0.58435495  0.41614878  0.62511585    -1.83400
O1607       O  0.53447185  0.37849479  0.55432290    -0.74000
O1608       O  0.64371878  0.46215656  0.56729811    -0.73900
O1609       O  0.56722823  0.47630404  0.64203316    -0.73400
O1610       O  0.58758453  0.38799028  0.54866386    -0.74100
O1611       O  0.52446007  0.43394517  0.61038252    -0.73700
O1612       O  0.64195241  0.49628681  0.60980219    -0.74200
O1613       O  0.61400983  0.41150011  0.70099654    -0.73600
O1614       O  0.64383794  0.39702565  0.60651011    -0.74400
O1615       O  0.62329323  0.46465409  0.69568204    -0.73800
O1616       O  0.60362052  0.35626856  0.64056705    -0.74200
O1617       O  0.53887970  0.35550499  0.68182548    -0.74200
O1618       O  0.50445598  0.35861319  0.64056565    -0.73900
C1619       C  0.55745808  0.37609197  0.53630678     0.77800
C1620       C  0.65283830  0.49183103  0.57939960     0.78300
C1621       C  0.53791326  0.46308213  0.62640803     0.77300
C1622       C  0.62604307  0.44168018  0.71338674     0.77700
C1623       C  0.63166866  0.36865242  0.62320730     0.78800
C1624       C  0.50913404  0.34691218  0.67028993     0.77900
C1625       C  0.67679343  0.02147738  0.55757003     0.03800
C1626       C  0.70738159  0.04655368  0.57326569    -0.12300
C1627       C  0.73141386  0.07489724  0.55301709     0.01300
C1628       C  0.72367216  0.07814340  0.51677700    -0.10800
C1629       C  0.69235441  0.05334635  0.00065157     0.03800
C1630       C  0.66947950  0.02451783  0.52104792    -0.10300
H1631       H  0.71247868  0.04351788  0.60142588     0.09400
H1632       H  0.74169501  0.10048109  0.00145904     0.07000
H1633       H  0.64539133  0.50526354  0.00917455     0.06800
C1634       C  0.97960706  0.32332574  0.69240846     0.03800
C1635       C  0.97670330  0.33180139  0.72863949    -0.12300
C1636       C  0.94734720  0.31016292  0.74902778     0.01300
C1637       C  0.92167406  0.27941762  0.73304629    -0.10800
C1638       C  0.92508559  0.27042280  0.69762515     0.03800
C1639       C  0.95398211  0.29255073  0.67722039    -0.08700
H1640       H  0.49646161  0.35579137  0.74021356     0.09400
H1641       H  0.89874177  0.26218817  0.74807261     0.07000
H1642       H  0.95632878  0.28604862  0.64937138     0.06800
Zn1643     Zn  0.79634626  0.12437937  0.64560710     1.49700
Zn1644     Zn  0.82887679  0.20331471  0.64598617     1.49400
Zn1645     Zn  0.87536916  0.17136588  0.64520545     1.49100
Zn1646     Zn  0.83338132  0.16644205  0.57217120     1.49500
O1647       O  0.83335568  0.16624823  0.62621731    -1.83400
O1648       O  0.76514454  0.13228048  0.67868109    -0.74000
O1649       O  0.86719385  0.23339267  0.68071309    -0.73900
O1650       O  0.86804578  0.13377797  0.68031293    -0.73400
O1651       O  0.78236575  0.18695380  0.66718289    -0.74100
O1652       O  0.81347354  0.09544929  0.66875919    -0.73700
O1653       O  0.90551265  0.21814397  0.66628711    -0.74200
O1654       O  0.87241441  0.15881805  0.55306696    -0.73600
O1655       O  0.83428711  0.23456716  0.60634637    -0.74400
O1656       O  0.90044209  0.16546011  0.60486776    -0.73800
O1657       O  0.84071235  0.21326139  0.55437322    -0.74200
O1658       O  0.78661981  0.12708156  0.55390720    -0.74200
O1659       O  0.76583983  0.09782607  0.60515447    -0.73900
C1660       C  0.76067524  0.15798013  0.68021378     0.77800
C1661       C  0.89776002  0.23881901  0.68106823     0.78300
C1662       C  0.84253055  0.10342554  0.68228082     0.77300
C1663       C  0.89733769  0.15983208  0.57083859     0.77700
C1664       C  0.83963341  0.23706132  0.57233772     0.78800
C1665       C  0.76320620  0.10138374  0.57125399     0.77900
Zn1666     Zn  0.80320609  0.41781303  0.65952374     1.49700
Zn1667     Zn  0.86267664  0.46244920  0.60525155     1.49400
Zn1668     Zn  0.86128311  0.39761962  0.64635813     1.49100
Zn1669     Zn  0.80389247  0.38513923  0.59073773     1.49500
O1670       O  0.83483988  0.41683429  0.62576886    -1.83400
O1671       O  0.82024021  0.46473615  0.67795009    -0.74000
O1672       O  0.91294578  0.47516273  0.60852211    -0.73900
O1673       O  0.84313477  0.37991199  0.69857572    -0.73400
O1674       O  0.85938112  0.49783878  0.63727717    -0.74100
O1675       O  0.80004820  0.39046591  0.70254357    -0.73700
O1676       O  0.91225658  0.43460275  0.64412722    -0.74200
O1677       O  0.82140635  0.35681092  0.57002179    -0.73600
O1678       O  0.84569326  0.46306012  0.55308099    -0.74400
O1679       O  0.85709583  0.35896701  0.61308116    -0.73800
O1680       O  0.80064996  0.41032028  0.54930418    -0.74200
O1681       O  0.75602885  0.35566140  0.60947923    -0.74200
O1682       O  0.75546974  0.39794987  0.63939136    -0.73900
C1683       C  0.84240401  0.49406857  0.66632486     0.77800
C1684       C  0.92854272  0.46276438  0.62646415     0.78300
C1685       C  0.81759721  0.37820950  0.71584456     0.77300
C1686       C  0.84191773  0.34790674  0.58248689     0.77700
C1687       C  0.81925632  0.43998599  0.53607358     0.78800
C1688       C  0.73971154  0.36871889  0.62407207     0.77900
C1689       C  0.84920548  0.02378177  0.68858883     0.03800
C1690       C  0.84303436  0.04916934  0.67512657    -0.12300
C1691       C  0.84747870  0.07623803  0.69771596     0.01300
C1692       C  0.85811167  0.07771846  0.73387400    -0.10800
C1693       C  0.86417356  0.05214168  0.74752589     0.03800
C1694       C  0.85988618  0.02539537  0.72476789    -0.10300
H1695       H  0.83472658  0.04783380  0.64717085     0.09400
H1696       H  0.86209866  0.09891656  0.75116108     0.07000
H1697       H  0.86466833  0.50573142  0.73525095     0.06800
C1698       C  0.67597739  0.15465882  0.69001450     0.03800
C1699       C  0.66795236  0.14453346  0.72659518    -0.12300
C1700       C  0.68993786  0.13794189  0.74770660     0.01300
C1701       C  0.72060043  0.14283449  0.73205745    -0.10800
C1702       C  0.72906926  0.15380812  0.69619987     0.03800
C1703       C  0.70658888  0.15947428  0.67504722    -0.10300
H1704       H  0.64406706  0.14049761  0.73799177     0.09400
H1705       H  0.73812609  0.13796069  0.74762319     0.07000
H1706       H  0.71282776  0.16746791  0.64695833     0.06800
Zn1707     Zn  0.61432426  0.19756513  0.65846010     1.49700
Zn1708     Zn  0.58133358  0.19604921  0.58907277     1.49400
Zn1709     Zn  0.60231965  0.13914687  0.60422996     1.49100
Zn1710     Zn  0.53729752  0.13833324  0.64447054     1.49500
O1711       O  0.58276753  0.16566223  0.62390792    -1.83400
O1712       O  0.64402870  0.24442880  0.63764835    -0.74000
O1713       O  0.60808431  0.19768328  0.54671772    -0.73900
O1714       O  0.64164790  0.14513919  0.63722008    -0.73400
O1715       O  0.60163932  0.24442073  0.60731906    -0.74100
O1716       O  0.64276196  0.18043690  0.68023437    -0.73700
O1717       O  0.61923858  0.15511196  0.55135610    -0.74200
O1718       O  0.52496643  0.08809420  0.64294606    -0.73600
O1719       O  0.53460419  0.17857019  0.57009132    -0.74400
O1720       O  0.56587211  0.08826729  0.60837364    -0.73800
O1721       O  0.50174360  0.14053032  0.61169211    -0.74200
O1722       O  0.53686383  0.15705923  0.69576658    -0.74200
O1723       O  0.58924556  0.20277190  0.69922348    -0.73900
C1724       C  0.63105898  0.26044541  0.62220133     0.77800
C1725       C  0.62039836  0.18014631  0.53363792     0.78300
C1726       C  0.65237951  0.16044103  0.66778206     0.77300
C1727       C  0.53767422  0.07225736  0.62598860     0.77700
C1728       C  0.50534725  0.15669727  0.58206747     0.78800
C1729       C  0.55953343  0.18409278  0.71235692     0.77900
C1730       C  0.97544023  0.15020922  0.56031358     0.03800
C1731       C  0.97340922  0.14071206  0.52376637    -0.12300
C1732       C  0.94677938  0.13772458  0.00166962     0.01300
C1733       C  0.92199131  0.14473508  0.51627194    -0.10800
C1734       C  0.92354426  0.15381607  0.55324484     0.03800
C1735       C  0.95049226  0.15622029  0.57496140    -0.10300
H1736       H  0.49263452  0.13566455  0.01247763     0.09400
H1737       H  0.90108791  0.14195905  0.99929472     0.07000
H1738       H  0.95281582  0.16366184  0.60333768     0.06800
C1739       C  0.98321099  0.01706073  0.87653740     0.80900
N1740       N  0.51799748  0.03422275  0.87444535    -0.77400
C1741       C  0.53540103  0.01683456  0.87502373     0.83400
N1742       N  0.51766557  0.48195435  0.87660722    -0.77300
C1743       C  0.98278158  0.46451815  0.87817781     0.83500
N1744       N  0.96569758  0.48223975  0.87860968    -0.79000
Zn1745     Zn  0.64027176  0.03759037  0.89380968     1.49700
Zn1746     Zn  0.69789505  0.11549970  0.90954314     1.49400
Zn1747     Zn  0.69697277  0.08372366  0.83882677     1.49100
Zn1748     Zn  0.63900705  0.10227809  0.85455188     1.49500
O1749       O  0.66655442  0.08387568  0.87448011    -1.83400
O1750       O  0.65748246  0.03639384  0.94603421    -0.74000
O1751       O  0.74572581  0.14370208  0.89005255    -0.73900
O1752       O  0.68002119  0.03817496  0.81715574    -0.73400
O1753       O  0.70065277  0.09003166  0.95159201    -0.74100
O1754       O  0.64516495  0.00400659  0.86020692    -0.73700
O1755       O  0.74483369  0.10217381  0.85703315    -0.74200
O1756       O  0.65456966  0.11992992  0.80187408    -0.73600
O1757       O  0.68110210  0.14517988  0.92932821    -0.74400
O1758       O  0.69930051  0.11213589  0.79803995    -0.73800
O1759       O  0.64332061  0.14085140  0.88759154    -0.74200
O1760       O  0.58881382  0.06461815  0.85788268    -0.74200
O1761       O  0.58950239  0.02332386  0.89096437    -0.73900
C1762       C  0.68295046  0.05982236  0.96397758     0.77800
C1763       C  0.76123945  0.13084471  0.87325517     0.78300
C1764       C  0.66019145  0.00852321  0.82960003     0.77300
C1765       C  0.68065556  0.12302070  0.78467699     0.77700
C1766       C  0.65969809  0.15317733  0.91731733     0.78800
C1767       C  0.57325587  0.03583923  0.87446503     0.77900
C1768       C  0.65326609  0.17647919  0.93931263     0.03800
C1769       C  0.65813458  0.20714840  0.92443526    -0.12300
C1770       C  0.65188662  0.22931995  0.94545802     0.01300
C1771       C  0.64008092  0.22036804  0.98106379    -0.10800
C1772       C  0.63525684  0.18967832  0.49663461     0.03800
C1773       C  0.64250240  0.16807993  0.97565900    -0.10300
H1774       H  0.66666107  0.21368821  0.89652963     0.09400
H1775       H  0.63473271  0.23759559  0.49657346     0.07000
H1776       H  0.63858850  0.14421523  0.48700591     0.06800
C1777       C  0.51923532  0.17823108  0.80442406     0.03800
C1778       C  0.54295825  0.20993978  0.81967879    -0.12300
C1779       C  0.57221719  0.23374253  0.80013139     0.01300
C1780       C  0.57653573  0.22569686  0.76436453    -0.10800
C1781       C  0.55259339  0.19396280  0.74843607     0.03800
C1782       C  0.52405317  0.17062109  0.76861611    -0.10300
H1783       H  0.53925921  0.21537140  0.84747761     0.09400
H1784       H  0.59923392  0.24362246  0.74946879     0.07000
H1785       H  0.00598306  0.14602589  0.75673716     0.06800
Zn1786     Zn  0.92414569  0.06263931  0.91678011     1.49700
Zn1787     Zn  0.93845458  0.07585068  0.83305633     1.49400
Zn1788     Zn  0.86766607  0.06387824  0.86501522     1.49100
Zn1789     Zn  0.93582245  0.13262215  0.88362886     1.49500
O1790       O  0.91661268  0.08365866  0.87455976    -1.83400
O1791       O  0.95502510  0.04277278  0.90605764    -0.74000
O1792       O  0.90672809  0.05883593  0.78962794    -0.73900
O1793       O  0.83891115  0.02110422  0.89570790    -0.73400
O1794       O  0.95842001  0.04538969  0.84557053    -0.74100
O1795       O  0.87937973  0.02372693  0.93240331    -0.73700
O1796       O  0.85909871  0.05567473  0.81112838    -0.74200
O1797       O  0.90183287  0.14732224  0.87154090    -0.73600
O1798       O  0.97700225  0.12089003  0.81647939    -0.74400
O1799       O  0.85256092  0.09801345  0.87537190    -0.73800
O1800       O  0.97852240  0.16106191  0.85293949    -0.74200
O1801       O  0.94320203  0.14231538  0.93769492    -0.74200
O1802       O  0.93947902  0.09468737  0.95994699    -0.73900
C1803       C  0.96459869  0.03606530  0.87604213     0.77800
C1804       C  0.87701522  0.05493432  0.78481715     0.78300
C1805       C  0.84813464  0.00986205  0.92275148     0.77300
C1806       C  0.86928011  0.13057286  0.87320819     0.77700
C1807       C  0.99016298  0.15214846  0.82598156     0.78800
C1808       C  0.94336819  0.12445984  0.96439055     0.77900
C1809       C  0.51969880  0.34425769  0.94209854     0.03800
C1810       C  0.52216844  0.35418980  0.97882541    -0.12300
C1811       C  0.55106359  0.36080859  0.49946254     0.01300
C1812       C  0.57662200  0.35596101  0.98328173    -0.10800
C1813       C  0.57369016  0.34521565  0.94727049     0.03800
C1814       C  0.54532359  0.33958765  0.92654717    -0.10300
H1815       H  0.00249155  0.35825158  0.49063193     0.09400
H1816       H  0.59925297  0.36085328  0.49848779     0.07000
H1817       H  0.54332031  0.33184513  0.89829449     0.06800
Zn1818     Zn  0.66596797  0.33425559  0.82179681     1.49700
Zn1819     Zn  0.70253088  0.32991029  0.89596952     1.49400
Zn1820     Zn  0.67000507  0.37590736  0.89545389     1.49100
Zn1821     Zn  0.62286475  0.29649750  0.89369077     1.49500
O1822       O  0.66535810  0.33407374  0.87574166    -1.83400
O1823       O  0.71269596  0.34109572  0.80419754    -0.74000
O1824       O  0.73272394  0.36878844  0.93042736    -0.73900
O1825       O  0.66586164  0.40215740  0.85560071    -0.73400
O1826       O  0.73403572  0.33505423  0.85634609    -0.74100
O1827       O  0.66034622  0.37446601  0.80374669    -0.73700
O1828       O  0.71605537  0.40640440  0.91817221    -0.74200
O1829       O  0.59361997  0.31271522  0.91691436    -0.73600
O1830       O  0.68567761  0.28339076  0.91793027    -0.74400
O1831       O  0.63110638  0.36747591  0.92879723    -0.73800
O1832       O  0.63020282  0.26473734  0.92621133    -0.74200
O1833       O  0.59576892  0.26684387  0.85301911    -0.74200
O1834       O  0.62545990  0.28830140  0.80224871    -0.73900
C1835       C  0.73655331  0.34022841  0.82226970     0.77800
C1836       C  0.73731920  0.39904832  0.93211402     0.78300
C1837       C  0.66144318  0.39946550  0.82143817     0.77300
C1838       C  0.60101621  0.34151632  0.93052854     0.77700
C1839       C  0.65624616  0.26101673  0.92945564     0.78800
C1840       C  0.59922287  0.26491998  0.81902264     0.77900
Zn1841     Zn  0.91510101  0.30187317  0.91033396     1.49700
Zn1842     Zn  0.96203756  0.36018203  0.85662597     1.49400
Zn1843     Zn  0.88462000  0.30316606  0.83958807     1.49100
Zn1844     Zn  0.89671420  0.36027211  0.89591891     1.49500
O1845       O  0.91554285  0.33339855  0.87552201    -1.83400
O1846       O  0.96062786  0.31872320  0.93223331    -0.74000
O1847       O  0.96453793  0.34481567  0.80391443    -0.73900
O1848       O  0.85634069  0.25470489  0.85732908    -0.73400
O1849       O  0.99510004  0.35441496  0.88981952    -0.74100
O1850       O  0.89762673  0.25482659  0.89006433    -0.73700
O1851       O  0.91091747  0.30193507  0.79802518    -0.74200
O1852       O  0.85849101  0.35665846  0.86244369    -0.73600
O1853       O  0.97618134  0.41071039  0.86107022    -0.74400
O1854       O  0.85537611  0.32029416  0.81962739    -0.73800
O1855       O  0.93450201  0.41074857  0.89403838    -0.74200
O1856       O  0.87853920  0.34285436  0.94818028    -0.74200
O1857       O  0.88561630  0.29757297  0.95136453    -0.73900
C1858       C  0.99035263  0.33883518  0.92007916     0.77800
C1859       C  0.94110809  0.31966431  0.78570677     0.78300
C1860       C  0.86915965  0.23879343  0.87340414     0.77300
C1861       C  0.84689759  0.34117268  0.83209911     0.77700
C1862       C  0.96352460  0.42663552  0.87792449     0.78800
C1863       C  0.87497411  0.31634557  0.96500263     0.77900
C1864       C  0.82323160  0.34733639  0.81030916     0.03800
C1865       C  0.83067632  0.35737441  0.77377439    -0.12300
C1866       C  0.80796135  0.36300403  0.75277675     0.01300
C1867       C  0.77658965  0.35657020  0.76837736    -0.10800
C1868       C  0.76863509  0.34586423  0.80468433     0.03800
C1869       C  0.79261535  0.34191421  0.82554703    -0.10300
H1870       H  0.85472296  0.36201026  0.76223696     0.09400
H1871       H  0.75865551  0.36061124  0.75255942     0.07000
H1872       H  0.78733330  0.33388776  0.85370144     0.06800
C1873       C  0.82270424  0.48039737  0.94430671     0.03800
C1874       C  0.79075855  0.45619128  0.92961036    -0.12300
C1875       C  0.76871590  0.42643178  0.94921706     0.01300
C1876       C  0.77817927  0.42164352  0.98395024    -0.10800
C1877       C  0.80940067  0.44639918  0.49977462     0.03800
C1878       C  0.83148331  0.47558185  0.97973575    -0.10300
H1879       H  0.78391169  0.45944118  0.90224204     0.09400
H1880       H  0.76102152  0.39836621  0.49851886     0.07000
H1881       H  0.85592934  0.99421607  0.49146660     0.06800
C1882       C  0.65513675  0.47910457  0.80780609     0.03800
C1883       C  0.66005942  0.45391249  0.82378775    -0.12300
C1884       C  0.65691998  0.42617507  0.80321226     0.01300
C1885       C  0.64778046  0.42364013  0.76645064    -0.10800
C1886       C  0.64155777  0.44836072  0.75015832     0.03800
C1887       C  0.64640275  0.47666653  0.77079952    -0.10300
H1888       H  0.66692475  0.45643496  0.85235302     0.09400
H1889       H  0.64431356  0.40169269  0.75090352     0.07000
H1890       H  0.64180413  0.99589253  0.75870759     0.06800
C1891       C  0.85061041  0.14931765  0.87280312     0.80900
N1892       N  0.86800821  0.18412781  0.87345904    -0.77400
C1893       C  0.85067166  0.20147961  0.87309954     0.83400
N1894       N  0.81596939  0.18406578  0.87287934    -0.77300
C1895       C  0.79852752  0.14935285  0.87258407     0.83500
N1896       N  0.81582497  0.13196974  0.87220645    -0.79000
C1897       C  0.51899892  0.98196677  0.12677462     0.80900
N1898       N  0.53631923  0.51690040  0.12652101    -0.77400
C1899       C  0.51894738  0.53435003  0.12647840     0.83400
N1900       N  0.98405223  0.51661207  0.12656865    -0.77300
C1901       C  0.96646541  0.98171132  0.12680939     0.83500
N1902       N  0.98407169  0.96450868  0.12690152    -0.79000
C1903       C  0.65026105  0.84999693  0.12259392     0.80900
N1904       N  0.63279525  0.81524873  0.12212322    -0.77400
C1905       C  0.65001410  0.79780961  0.12203745     0.83400
N1906       N  0.68479262  0.81517518  0.12262423    -0.77300
C1907       C  0.70231964  0.84996238  0.12314565     0.83500
N1908       N  0.68501513  0.86733775  0.12310453    -0.79000
C1909       C  0.84758913  0.82405142  0.06049821     0.03800
C1910       C  0.85601631  0.83070111  0.02348381    -0.12300
C1911       C  0.86028536  0.80728697  0.50215200     0.01300
C1912       C  0.85397586  0.77603384  0.01792821    -0.10800
C1913       C  0.84511790  0.76902400  0.05473038     0.03800
C1914       C  0.84259590  0.79367340  0.07591096    -0.10300
H1915       H  0.86048927  0.85464465  0.51179691     0.09400
H1916       H  0.85690252  0.75751066  0.50188108     0.07000
H1917       H  0.83583878  0.78903244  0.10444308     0.06800
Zn1918     Zn  0.53766896  0.89687578  0.10676249     1.49700
Zn1919     Zn  0.61483588  0.91638273  0.08909326     1.49400
Zn1920     Zn  0.60414272  0.96265825  0.14393712     1.49100
Zn1921     Zn  0.58473700  0.88500668  0.16014111     1.49500
O1922       O  0.58435485  0.91614878  0.12511590    -1.83400
O1923       O  0.53447191  0.87849482  0.05432294    -0.74000
O1924       O  0.64371865  0.96215654  0.06729799    -0.73900
O1925       O  0.56722827  0.97630407  0.14203321    -0.73400
O1926       O  0.58758458  0.88799027  0.04866388    -0.74100
O1927       O  0.52446012  0.93394518  0.11038258    -0.73700
O1928       O  0.64195253  0.99628679  0.10980221    -0.74200
O1929       O  0.61400975  0.91150010  0.20099656    -0.73600
O1930       O  0.64383796  0.89702567  0.10651017    -0.74400
O1931       O  0.62329315  0.96465410  0.19568206    -0.73800
O1932       O  0.60362057  0.85626858  0.14056712    -0.74200
O1933       O  0.53887971  0.85550501  0.18182558    -0.74200
O1934       O  0.50445600  0.85861316  0.14056570    -0.73900
C1935       C  0.55745813  0.87609198  0.03630681     0.77800
C1936       C  0.65283831  0.99183102  0.07939955     0.78300
C1937       C  0.53791329  0.96308214  0.12640807     0.77300
C1938       C  0.62604300  0.94168018  0.21338674     0.77700
C1939       C  0.63166870  0.86865242  0.12320734     0.78800
C1940       C  0.50913406  0.84691217  0.17029001     0.77900
C1941       C  0.67679346  0.52147739  0.05756992     0.03800
C1942       C  0.70738158  0.54655373  0.07326565    -0.12300
C1943       C  0.73141385  0.57489726  0.05301700     0.01300
C1944       C  0.72367221  0.57814341  0.01677689    -0.10800
C1945       C  0.69235443  0.55334636  0.50065166     0.03800
C1946       C  0.66947956  0.52451782  0.02104781    -0.10300
H1947       H  0.71247861  0.54351796  0.10142576     0.09400
H1948       H  0.74169504  0.60048110  0.50145913     0.07000
H1949       H  0.64539124  0.00526361  0.50917469     0.06800
C1950       C  0.97960708  0.82332572  0.19240852     0.03800
C1951       C  0.97670326  0.83180140  0.22863951    -0.12300
C1952       C  0.94734715  0.81016295  0.24902774     0.01300
C1953       C  0.92167400  0.77941761  0.23304630    -0.10800
C1954       C  0.92508559  0.77042278  0.19762518     0.03800
C1955       C  0.95398215  0.79255069  0.17722051    -0.08700
H1956       H  0.49646156  0.85579140  0.24021361     0.09400
H1957       H  0.89874176  0.76218822  0.24807257     0.07000
H1958       H  0.95632886  0.78604856  0.14937141     0.06800
Zn1959     Zn  0.79634617  0.62437937  0.14560700     1.49700
Zn1960     Zn  0.82887685  0.70331471  0.14598622     1.49400
Zn1961     Zn  0.87536911  0.67136588  0.14520549     1.49100
Zn1962     Zn  0.83338128  0.66644204  0.07217124     1.49500
O1963       O  0.83335569  0.66624822  0.12621732    -1.83400
O1964       O  0.76514447  0.63228045  0.17868109    -0.74000
O1965       O  0.86719382  0.73339272  0.18071317    -0.73900
O1966       O  0.86804571  0.63377797  0.18031298    -0.73400
O1967       O  0.78236581  0.68695379  0.16718297    -0.74100
O1968       O  0.81347348  0.59544929  0.16875921    -0.73700
O1969       O  0.90551255  0.71814396  0.16628715    -0.74200
O1970       O  0.87241443  0.65881806  0.05306703    -0.73600
O1971       O  0.83428706  0.73456715  0.10634641    -0.74400
O1972       O  0.90044216  0.66546011  0.10486781    -0.73800
O1973       O  0.84071245  0.71326143  0.05437330    -0.74200
O1974       O  0.78661976  0.62708156  0.05390713    -0.74200
O1975       O  0.76583976  0.59782609  0.10515439    -0.73900
C1976       C  0.76067524  0.65798014  0.18021384     0.77800
C1977       C  0.89775997  0.73881903  0.18106827     0.78300
C1978       C  0.84253050  0.60342553  0.18228083     0.77300
C1979       C  0.89733774  0.65983209  0.07083863     0.77700
C1980       C  0.83963343  0.73706132  0.07233776     0.78800
C1981       C  0.76320615  0.60138375  0.07125392     0.77900
Zn1982     Zn  0.80320613  0.91781304  0.15952373     1.49700
Zn1983     Zn  0.86267671  0.96244921  0.10525157     1.49400
Zn1984     Zn  0.86128317  0.89761963  0.14635813     1.49100
Zn1985     Zn  0.80389251  0.88513922  0.09073759     1.49500
O1986       O  0.83483988  0.91683427  0.12576876    -1.83400
O1987       O  0.82024032  0.96473613  0.17795019    -0.74000
O1988       O  0.91294582  0.97516268  0.10852202    -0.73900
O1989       O  0.84313474  0.87991201  0.19857567    -0.73400
O1990       O  0.85938110  0.99783879  0.13727717    -0.74100
O1991       O  0.80004812  0.89046585  0.20254346    -0.73700
O1992       O  0.91225662  0.93460279  0.14412728    -0.74200
O1993       O  0.82140642  0.85681090  0.07002176    -0.73600
O1994       O  0.84569333  0.96306008  0.05308099    -0.74400
O1995       O  0.85709599  0.85896705  0.11308109    -0.73800
O1996       O  0.80064993  0.91032032  0.04930418    -0.74200
O1997       O  0.75602882  0.85566148  0.10947906    -0.74200
O1998       O  0.75546972  0.89794986  0.13939142    -0.73900
C1999       C  0.84240404  0.99406856  0.16632492     0.77800
C2000       C  0.92854275  0.96276439  0.12646416     0.78300
C2001       C  0.81759715  0.87820947  0.21584448     0.77300
C2002       C  0.84191783  0.84790676  0.08248684     0.77700
C2003       C  0.81925635  0.93998601  0.03607358     0.78800
C2004       C  0.73971153  0.86871891  0.12407207     0.77900
C2005       C  0.84920556  0.52378178  0.18858886     0.03800
C2006       C  0.84303442  0.54916933  0.17512661    -0.12300
C2007       C  0.84747871  0.57623802  0.19771596     0.01300
C2008       C  0.85811176  0.57771850  0.23387400    -0.10800
C2009       C  0.86417362  0.55214170  0.24752590     0.03800
C2010       C  0.85988627  0.52539536  0.22476794    -0.10300
H2011       H  0.83472659  0.54783373  0.14717083     0.09400
H2012       H  0.86209875  0.59891656  0.25116103     0.07000
H2013       H  0.86466836  0.00573146  0.23525098     0.06800
C2014       C  0.67597736  0.65465881  0.19001452     0.03800
C2015       C  0.66795237  0.64453347  0.22659520    -0.12300
C2016       C  0.68993784  0.63794189  0.24770665     0.01300
C2017       C  0.72060041  0.64283450  0.23205750    -0.10800
C2018       C  0.72906926  0.65380816  0.19619994     0.03800
C2019       C  0.70658888  0.65947429  0.17504727    -0.10300
H2020       H  0.64406698  0.64049761  0.23799182     0.09400
H2021       H  0.73812609  0.63796070  0.24762325     0.07000
H2022       H  0.71282777  0.66746791  0.14695837     0.06800
Zn2023     Zn  0.61432434  0.69756514  0.15845998     1.49700
Zn2024     Zn  0.58133360  0.69604920  0.08907279     1.49400
Zn2025     Zn  0.60231955  0.63914687  0.10422987     1.49100
Zn2026     Zn  0.53729747  0.63833323  0.14447060     1.49500
O2027       O  0.58276746  0.66566221  0.12390792    -1.83400
O2028       O  0.64402878  0.74442882  0.13764838    -0.74000
O2029       O  0.60808427  0.69768331  0.04671772    -0.73900
O2030       O  0.64164779  0.64513912  0.13722007    -0.73400
O2031       O  0.60163938  0.74442073  0.10731912    -0.74100
O2032       O  0.64276204  0.68043698  0.18023428    -0.73700
O2033       O  0.61923849  0.65511196  0.05135608    -0.74200
O2034       O  0.52496636  0.58809418  0.14294611    -0.73600
O2035       O  0.53460417  0.67857007  0.07009122    -0.74400
O2036       O  0.56587205  0.58826731  0.10837366    -0.73800
O2037       O  0.50174361  0.64053034  0.11169214    -0.74200
O2038       O  0.53686391  0.65705924  0.19576662    -0.74200
O2039       O  0.58924567  0.70277189  0.19922349    -0.73900
C2040       C  0.63105904  0.76044542  0.12220138     0.77800
C2041       C  0.62039829  0.68014632  0.03363790     0.78300
C2042       C  0.65237948  0.66044101  0.16778202     0.77300
C2043       C  0.53767421  0.57225736  0.12598865     0.77700
C2044       C  0.50534723  0.65669721  0.08206745     0.78800
C2045       C  0.55953353  0.68409278  0.21235694     0.77900
C2046       C  0.97544018  0.65020916  0.06031359     0.03800
C2047       C  0.97340919  0.64071202  0.02376638    -0.12300
C2048       C  0.94677938  0.63772462  0.50166959     0.01300
C2049       C  0.92199131  0.64473508  0.01627194    -0.10800
C2050       C  0.92354427  0.65381610  0.05324482     0.03800
C2051       C  0.95049228  0.65622032  0.07496138    -0.10300
H2052       H  0.49263450  0.63566458  0.51247756     0.09400
H2053       H  0.90108789  0.64195908  0.49929474     0.07000
H2054       H  0.95281586  0.66366192  0.10333767     0.06800
C2055       C  0.98321091  0.51706071  0.37653740     0.80900
N2056       N  0.51799742  0.53422275  0.37444541    -0.77400
C2057       C  0.53540099  0.51683459  0.37502377     0.83400
N2058       N  0.51766558  0.98195434  0.37660730    -0.77300
C2059       C  0.98278160  0.96451813  0.37817781     0.83500
N2060       N  0.96569759  0.98223972  0.37860957    -0.79000
Zn2061     Zn  0.64027179  0.53759036  0.39380972     1.49700
Zn2062     Zn  0.69789508  0.61549970  0.40954320     1.49400
Zn2063     Zn  0.69697282  0.58372366  0.33882683     1.49100
Zn2064     Zn  0.63900711  0.60227809  0.35455193     1.49500
O2065       O  0.66655444  0.58387568  0.37448018    -1.83400
O2066       O  0.65748256  0.53639379  0.44603424    -0.74000
O2067       O  0.74572579  0.64370211  0.39005259    -0.73900
O2068       O  0.68002130  0.53817497  0.31715578    -0.73400
O2069       O  0.70065275  0.59003168  0.45159211    -0.74100
O2070       O  0.64516482  0.50400657  0.36020679    -0.73700
O2071       O  0.74483364  0.60217380  0.35703322    -0.74200
O2072       O  0.65456970  0.61992990  0.30187417    -0.73600
O2073       O  0.68110204  0.64517983  0.42932820    -0.74400
O2074       O  0.69930056  0.61213590  0.29803998    -0.73800
O2075       O  0.64332063  0.64085146  0.38759150    -0.74200
O2076       O  0.58881385  0.56461816  0.35788272    -0.74200
O2077       O  0.58950235  0.52332386  0.39096447    -0.73900
C2078       C  0.68295050  0.55982236  0.46397765     0.77800
C2079       C  0.76123941  0.63084472  0.37325520     0.78300
C2080       C  0.66019142  0.50852321  0.32959996     0.77300
C2081       C  0.68065559  0.62302069  0.28467705     0.77700
C2082       C  0.65969808  0.65317733  0.41731733     0.78800
C2083       C  0.57325586  0.53583925  0.37446510     0.77900
C2084       C  0.65326612  0.67647920  0.43931265     0.03800
C2085       C  0.65813454  0.70714838  0.42443529    -0.12300
C2086       C  0.65188668  0.72931997  0.44545808     0.01300
C2087       C  0.64008098  0.72036805  0.48106383    -0.10800
C2088       C  0.63525681  0.68967833  0.99663459     0.03800
C2089       C  0.64250246  0.66807993  0.47565904    -0.10300
H2090       H  0.66666093  0.71368814  0.39652961     0.09400
H2091       H  0.63473270  0.73759561  0.99657341     0.07000
H2092       H  0.63858854  0.64421527  0.98700594     0.06800
C2093       C  0.51923525  0.67823109  0.30442398     0.03800
C2094       C  0.54295820  0.70993978  0.31967873    -0.12300
C2095       C  0.57221717  0.73374252  0.30013135     0.01300
C2096       C  0.57653577  0.72569686  0.26436452    -0.10800
C2097       C  0.55259344  0.69396281  0.24843604     0.03800
C2098       C  0.52405316  0.67062109  0.26861604    -0.10300
H2099       H  0.53925916  0.71537137  0.34747748     0.09400
H2100       H  0.59923397  0.74362246  0.24946882     0.07000
H2101       H  0.00598310  0.64602589  0.25673710     0.06800
Zn2102     Zn  0.92414574  0.56263933  0.41678001     1.49700
Zn2103     Zn  0.93845461  0.57585069  0.33305639     1.49400
Zn2104     Zn  0.86766610  0.56387823  0.36501527     1.49100
Zn2105     Zn  0.93582237  0.63262216  0.38362886     1.49500
O2106       O  0.91661268  0.58365869  0.37455976    -1.83400
O2107       O  0.95502504  0.54277277  0.40605767    -0.74000
O2108       O  0.90672807  0.55883595  0.28962805    -0.73900
O2109       O  0.83891107  0.52110422  0.39570794    -0.73400
O2110       O  0.95841994  0.54538968  0.34557058    -0.74100
O2111       O  0.87937973  0.52372693  0.43240319    -0.73700
O2112       O  0.85909867  0.55567473  0.31112841    -0.74200
O2113       O  0.90183284  0.64732228  0.37154074    -0.73600
O2114       O  0.97700218  0.62089004  0.31647938    -0.74400
O2115       O  0.85256096  0.59801346  0.37537199    -0.73800
O2116       O  0.97852244  0.66106192  0.35293957    -0.74200
O2117       O  0.94320189  0.64231533  0.43769489    -0.74200
O2118       O  0.93947910  0.59468741  0.45994695    -0.73900
C2119       C  0.96459860  0.53606526  0.37604217     0.77800
C2120       C  0.87701521  0.55493433  0.28481721     0.78300
C2121       C  0.84813462  0.50986205  0.42275148     0.77300
C2122       C  0.86928009  0.63057287  0.37320814     0.77700
C2123       C  0.99016294  0.65214847  0.32598156     0.78800
C2124       C  0.94336815  0.62445984  0.46439052     0.77900
C2125       C  0.51969883  0.84425769  0.44209844     0.03800
C2126       C  0.52216851  0.85418982  0.47882529    -0.12300
C2127       C  0.55106362  0.86080860  0.99946258     0.01300
C2128       C  0.57662203  0.85596101  0.48328175    -0.10800
C2129       C  0.57369018  0.84521561  0.44727051     0.03800
C2130       C  0.54532365  0.83958763  0.42654712    -0.10300
H2131       H  0.00249163  0.85825163  0.99063207     0.09400
H2132       H  0.59925303  0.86085335  0.99848773     0.07000
H2133       H  0.54332040  0.83184510  0.39829443     0.06800
Zn2134     Zn  0.66596803  0.83425559  0.32179668     1.49700
Zn2135     Zn  0.70253083  0.82991028  0.39596955     1.49400
Zn2136     Zn  0.67000512  0.87590735  0.39545392     1.49100
Zn2137     Zn  0.62286483  0.79649750  0.39369078     1.49500
O2138       O  0.66535815  0.83407374  0.37574153    -1.83400
O2139       O  0.71269597  0.84109572  0.30419758    -0.74000
O2140       O  0.73272381  0.86878842  0.43042741    -0.73900
O2141       O  0.66586174  0.90215745  0.35560071    -0.73400
O2142       O  0.73403576  0.83505423  0.35634613    -0.74100
O2143       O  0.66034632  0.87446604  0.30374668    -0.73700
O2144       O  0.71605531  0.90640443  0.41817228    -0.74200
O2145       O  0.59362006  0.81271522  0.41691444    -0.73600
O2146       O  0.68567766  0.78339077  0.41793032    -0.74400
O2147       O  0.63110639  0.86747594  0.42879724    -0.73800
O2148       O  0.63020288  0.76473735  0.42621138    -0.74200
O2149       O  0.59576884  0.76684387  0.35301911    -0.74200
O2150       O  0.62545984  0.78830141  0.30224869    -0.73900
C2151       C  0.73655333  0.84022843  0.32226973     0.77800
C2152       C  0.73731911  0.89904831  0.43211409     0.78300
C2153       C  0.66144324  0.89946552  0.32143817     0.77300
C2154       C  0.60101626  0.84151632  0.43052860     0.77700
C2155       C  0.65624622  0.76101674  0.42945570     0.78800
C2156       C  0.59922280  0.76492000  0.31902262     0.77900
Zn2157     Zn  0.91510096  0.80187317  0.41033399     1.49700
Zn2158     Zn  0.96203761  0.86018202  0.35662598     1.49400
Zn2159     Zn  0.88462009  0.80316606  0.33958811     1.49100
Zn2160     Zn  0.89671428  0.86027213  0.39591896     1.49500
O2161       O  0.91554287  0.83339857  0.37552204    -1.83400
O2162       O  0.96062787  0.81872331  0.43223325    -0.74000
O2163       O  0.96453787  0.84481573  0.30391434    -0.73900
O2164       O  0.85634079  0.75470493  0.35732912    -0.73400
O2165       O  0.99510007  0.85441488  0.38981937    -0.74100
O2166       O  0.89762679  0.75482658  0.39006438    -0.73700
O2167       O  0.91091745  0.80193503  0.29802516    -0.74200
O2168       O  0.85849110  0.85665846  0.36244374    -0.73600
O2169       O  0.97618141  0.91071039  0.36107034    -0.74400
O2170       O  0.85537619  0.82029417  0.31962745    -0.73800
O2171       O  0.93450204  0.91074858  0.39403839    -0.74200
O2172       O  0.87853930  0.84285437  0.44818030    -0.74200
O2173       O  0.88561635  0.79757297  0.45136458    -0.73900
C2174       C  0.99035265  0.83883517  0.42007904     0.77800
C2175       C  0.94110804  0.81966433  0.28570671     0.78300
C2176       C  0.86915969  0.73879343  0.37340422     0.77300
C2177       C  0.84689765  0.84117267  0.33209916     0.77700
C2178       C  0.96352465  0.92663552  0.37792454     0.78800
C2179       C  0.87497417  0.81634558  0.46500267     0.77900
C2180       C  0.82323163  0.84733641  0.31030916     0.03800
C2181       C  0.83067632  0.85737442  0.27377438    -0.12300
C2182       C  0.80796133  0.86300401  0.25277670     0.01300
C2183       C  0.77658960  0.85657018  0.26837729    -0.10800
C2184       C  0.76863511  0.84586425  0.30468430     0.03800
C2185       C  0.79261536  0.84191422  0.32554703    -0.10300
H2186       H  0.85472298  0.86201029  0.26223695     0.09400
H2187       H  0.75865551  0.86061116  0.25255939     0.07000
H2188       H  0.78733332  0.83388780  0.35370134     0.06800
C2189       C  0.82270424  0.98039733  0.44430673     0.03800
C2190       C  0.79075856  0.95619122  0.42961038    -0.12300
C2191       C  0.76871585  0.92643176  0.44921711     0.01300
C2192       C  0.77817917  0.92164351  0.48395031    -0.10800
C2193       C  0.80940069  0.94639920  0.99977461     0.03800
C2194       C  0.83148326  0.97558183  0.47973581    -0.10300
H2195       H  0.78391172  0.95944109  0.40224204     0.09400
H2196       H  0.76102149  0.89836621  0.99851882     0.07000
H2197       H  0.85592937  0.49421609  0.99146652     0.06800
C2198       C  0.65513678  0.97910459  0.30780600     0.03800
C2199       C  0.66005935  0.95391246  0.32378767    -0.12300
C2200       C  0.65691992  0.92617503  0.30321222     0.01300
C2201       C  0.64778041  0.92364013  0.26645060    -0.10800
C2202       C  0.64155770  0.94836071  0.25015828     0.03800
C2203       C  0.64640271  0.97666656  0.27079944    -0.10300
H2204       H  0.66692466  0.95643492  0.35235292     0.09400
H2205       H  0.64431359  0.90169272  0.25090342     0.07000
H2206       H  0.64180415  0.49589253  0.25870750     0.06800
C2207       C  0.85061035  0.64931764  0.37280306     0.80900
N2208       N  0.86800817  0.68412779  0.37345905    -0.77400
C2209       C  0.85067163  0.70147961  0.37309962     0.83400
N2210       N  0.81596935  0.68406579  0.37287935    -0.77300
C2211       C  0.79852747  0.64935285  0.37258402     0.83500
N2212       N  0.81582491  0.63196974  0.37220640    -0.79000
C2213       C  0.51899892  0.98196678  0.62677461     0.80900
N2214       N  0.53631921  0.51690038  0.62652112    -0.77400
C2215       C  0.51894741  0.53435002  0.62647838     0.83400
N2216       N  0.98405223  0.51661210  0.62656858    -0.77300
C2217       C  0.96646539  0.98171128  0.62680932     0.83500
N2218       N  0.98407171  0.96450869  0.62690144    -0.79000
C2219       C  0.65026109  0.84999697  0.62259394     0.80900
N2220       N  0.63279527  0.81524877  0.62212334    -0.77400
C2221       C  0.65001410  0.79780964  0.62203746     0.83400
N2222       N  0.68479264  0.81517518  0.62262416    -0.77300
C2223       C  0.70231969  0.84996238  0.62314558     0.83500
N2224       N  0.68501519  0.86733777  0.62310446    -0.79000
C2225       C  0.84758911  0.82405142  0.56049828     0.03800
C2226       C  0.85601626  0.83070109  0.52348388    -0.12300
C2227       C  0.86028536  0.80728695  0.00215195     0.01300
C2228       C  0.85397588  0.77603392  0.51792828    -0.10800
C2229       C  0.84511792  0.76902402  0.55473041     0.03800
C2230       C  0.84259588  0.79367340  0.57591103    -0.10300
H2231       H  0.86048932  0.85464457  0.01179686     0.09400
H2232       H  0.85690251  0.75751068  0.00188113     0.07000
H2233       H  0.83583871  0.78903236  0.60444317     0.06800
Zn2234     Zn  0.53766904  0.89687573  0.60676246     1.49700
Zn2235     Zn  0.61483585  0.91638267  0.58909324     1.49400
Zn2236     Zn  0.60414271  0.96265833  0.64393710     1.49100
Zn2237     Zn  0.58473705  0.88500678  0.66014120     1.49500
O2238       O  0.58435496  0.91614885  0.62511591    -1.83400
O2239       O  0.53447182  0.87849471  0.55432294    -0.74000
O2240       O  0.64371879  0.96215653  0.56729809    -0.73900
O2241       O  0.56722823  0.97630404  0.64203315    -0.73400
O2242       O  0.58758447  0.88799013  0.54866399    -0.74100
O2243       O  0.52446009  0.93394514  0.61038252    -0.73700
O2244       O  0.64195240  0.99628677  0.60980220    -0.74200
O2245       O  0.61400990  0.91150019  0.70099652    -0.73600
O2246       O  0.64383796  0.89702567  0.60651005    -0.74400
O2247       O  0.62329314  0.96465413  0.69568209    -0.73800
O2248       O  0.60362060  0.85626868  0.64056713    -0.74200
O2249       O  0.53887968  0.85550489  0.68182552    -0.74200
O2250       O  0.50445605  0.85861325  0.64056570    -0.73900
C2251       C  0.55745807  0.87609189  0.53630684     0.77800
C2252       C  0.65283829  0.99183100  0.57939961     0.78300
C2253       C  0.53791328  0.96308213  0.62640801     0.77300
C2254       C  0.62604308  0.94168023  0.71338673     0.77700
C2255       C  0.63166873  0.86865249  0.62320733     0.78800
C2256       C  0.50913404  0.84691214  0.67028995     0.77900
C2257       C  0.67679347  0.52147739  0.55757002     0.03800
C2258       C  0.70738163  0.54655370  0.57326570    -0.12300
C2259       C  0.73141390  0.57489726  0.55301710     0.01300
C2260       C  0.72367222  0.57814343  0.51677700    -0.10800
C2261       C  0.69235443  0.55334630  0.00065154     0.03800
C2262       C  0.66947953  0.52451790  0.52104793    -0.10300
H2263       H  0.71247872  0.54351792  0.60142590     0.09400
H2264       H  0.74169495  0.60048103  0.00145904     0.07000
H2265       H  0.64539126  0.00526361  0.00917460     0.06800
C2266       C  0.97960702  0.82332572  0.69240845     0.03800
C2267       C  0.97670318  0.83180131  0.72863944    -0.12300
C2268       C  0.94734717  0.81016287  0.74902779     0.01300
C2269       C  0.92167397  0.77941756  0.73304631    -0.10800
C2270       C  0.92508560  0.77042275  0.69762517     0.03800
C2271       C  0.95398212  0.79255066  0.67722042    -0.08700
H2272       H  0.49646156  0.85579142  0.74021357     0.09400
H2273       H  0.89874172  0.76218818  0.74807255     0.07000
H2274       H  0.95632885  0.78604853  0.64937144     0.06800
Zn2275     Zn  0.79634632  0.62437942  0.64560712     1.49700
Zn2276     Zn  0.82887678  0.70331464  0.64598618     1.49400
Zn2277     Zn  0.87536905  0.67136582  0.64520544     1.49100
Zn2278     Zn  0.83338133  0.66644197  0.57217119     1.49500
O2279       O  0.83335566  0.66624817  0.62621728    -1.83400
O2280       O  0.76514452  0.63228047  0.67868107    -0.74000
O2281       O  0.86719390  0.73339271  0.68071305    -0.73900
O2282       O  0.86804569  0.63377803  0.68031297    -0.73400
O2283       O  0.78236578  0.68695378  0.66718292    -0.74100
O2284       O  0.81347353  0.59544921  0.66875915    -0.73700
O2285       O  0.90551266  0.71814396  0.66628707    -0.74200
O2286       O  0.87241440  0.65881795  0.55306696    -0.73600
O2287       O  0.83428694  0.73456704  0.60634635    -0.74400
O2288       O  0.90044204  0.66545999  0.60486780    -0.73800
O2289       O  0.84071246  0.71326142  0.55437323    -0.74200
O2290       O  0.78661987  0.62708151  0.55390714    -0.74200
O2291       O  0.76583989  0.59782614  0.60515448    -0.73900
C2292       C  0.76067523  0.65798013  0.68021378     0.77800
C2293       C  0.89776005  0.73881900  0.68106822     0.78300
C2294       C  0.84253055  0.60342556  0.68228083     0.77300
C2295       C  0.89733768  0.65983203  0.57083862     0.77700
C2296       C  0.83963338  0.73706129  0.57233772     0.78800
C2297       C  0.76320625  0.60138374  0.57125399     0.77900
Zn2298     Zn  0.80320616  0.91781309  0.65952374     1.49700
Zn2299     Zn  0.86267672  0.96244928  0.60525154     1.49400
Zn2300     Zn  0.86128313  0.89761960  0.64635814     1.49100
Zn2301     Zn  0.80389250  0.88513920  0.59073772     1.49500
O2302       O  0.83483996  0.91683435  0.62576884    -1.83400
O2303       O  0.82024024  0.96473611  0.67795011    -0.74000
O2304       O  0.91294578  0.97516268  0.60852208    -0.73900
O2305       O  0.84313481  0.87991204  0.69857576    -0.73400
O2306       O  0.85938116  0.99783877  0.63727720    -0.74100
O2307       O  0.80004815  0.89046583  0.70254353    -0.73700
O2308       O  0.91225658  0.93460274  0.64412728    -0.74200
O2309       O  0.82140634  0.85681086  0.57002181    -0.73600
O2310       O  0.84569329  0.96306014  0.55308098    -0.74400
O2311       O  0.85709594  0.85896710  0.61308112    -0.73800
O2312       O  0.80064993  0.91032033  0.54930419    -0.74200
O2313       O  0.75602892  0.85566144  0.60947920    -0.74200
O2314       O  0.75546978  0.89794987  0.63939139    -0.73900
C2315       C  0.84240402  0.99406854  0.66632488     0.77800
C2316       C  0.92854271  0.96276435  0.62646415     0.78300
C2317       C  0.81759718  0.87820946  0.71584454     0.77300
C2318       C  0.84191778  0.84790676  0.58248689     0.77700
C2319       C  0.81925634  0.93998605  0.53607359     0.78800
C2320       C  0.73971160  0.86871891  0.62407208     0.77900
C2321       C  0.84920556  0.52378184  0.68858881     0.03800
C2322       C  0.84303448  0.54916945  0.67512656    -0.12300
C2323       C  0.84747883  0.57623813  0.69771595     0.01300
C2324       C  0.85811177  0.57771855  0.73387402    -0.10800
C2325       C  0.86417356  0.55214169  0.74752589     0.03800
C2326       C  0.85988625  0.52539544  0.72476785    -0.10300
H2327       H  0.83472668  0.54783391  0.64717085     0.09400
H2328       H  0.86209873  0.59891657  0.75116109     0.07000
H2329       H  0.86466827  0.00573142  0.73525096     0.06800
C2330       C  0.67597738  0.65465877  0.69001447     0.03800
C2331       C  0.66795236  0.64453343  0.72659516    -0.12300
C2332       C  0.68993787  0.63794192  0.74770662     0.01300
C2333       C  0.72060040  0.64283450  0.73205744    -0.10800
C2334       C  0.72906927  0.65380812  0.69619988     0.03800
C2335       C  0.70658886  0.65947421  0.67504721    -0.10300
H2336       H  0.64406702  0.64049758  0.73799177     0.09400
H2337       H  0.73812609  0.63796064  0.74762323     0.07000
H2338       H  0.71282774  0.66746781  0.64695829     0.06800
Zn2339     Zn  0.61432434  0.69756521  0.65846009     1.49700
Zn2340     Zn  0.58133367  0.69604930  0.58907278     1.49400
Zn2341     Zn  0.60231955  0.63914680  0.60422996     1.49100
Zn2342     Zn  0.53729753  0.63833315  0.64447054     1.49500
O2343       O  0.58276754  0.66566222  0.62390794    -1.83400
O2344       O  0.64402875  0.74442883  0.63764832    -0.74000
O2345       O  0.60808442  0.69768341  0.54671773    -0.73900
O2346       O  0.64164784  0.64513914  0.63722011    -0.73400
O2347       O  0.60163939  0.74442082  0.60731906    -0.74100
O2348       O  0.64276212  0.68043702  0.68023433    -0.73700
O2349       O  0.61923863  0.65511204  0.55135615    -0.74200
O2350       O  0.52496646  0.58809414  0.64294606    -0.73600
O2351       O  0.53460420  0.67857015  0.57009132    -0.74400
O2352       O  0.56587211  0.58826724  0.60837362    -0.73800
O2353       O  0.50174360  0.64053026  0.61169210    -0.74200
O2354       O  0.53686389  0.65705917  0.69576658    -0.74200
O2355       O  0.58924558  0.70277193  0.69922347    -0.73900
C2356       C  0.63105904  0.76044547  0.62220133     0.77800
C2357       C  0.62039841  0.68014637  0.53363793     0.78300
C2358       C  0.65237955  0.66044105  0.66778204     0.77300
C2359       C  0.53767426  0.57225731  0.62598860     0.77700
C2360       C  0.50534725  0.65669723  0.58206747     0.78800
C2361       C  0.55953346  0.68409273  0.71235693     0.77900
C2362       C  0.97544022  0.65020923  0.56031359     0.03800
C2363       C  0.97340918  0.64071211  0.52376636    -0.12300
C2364       C  0.94677942  0.63772458  0.00166959     0.01300
C2365       C  0.92199132  0.64473516  0.51627197    -0.10800
C2366       C  0.92354431  0.65381617  0.55324484     0.03800
C2367       C  0.95049231  0.65622037  0.57496142    -0.10300
H2368       H  0.49263448  0.63566443  0.01247767     0.09400
H2369       H  0.90108790  0.64195901  0.99929467     0.07000
H2370       H  0.95281587  0.66366191  0.60333770     0.06800
C2371       C  0.98321094  0.51706068  0.87653742     0.80900
N2372       N  0.51799743  0.53422273  0.87444535    -0.77400
C2373       C  0.53540101  0.51683455  0.87502374     0.83400
N2374       N  0.51766559  0.98195434  0.87660721    -0.77300
C2375       C  0.98278161  0.96451817  0.87817779     0.83500
N2376       N  0.96569765  0.98223979  0.87860967    -0.79000
Zn2377     Zn  0.64027182  0.53759046  0.89380969     1.49700
Zn2378     Zn  0.69789502  0.61549963  0.90954314     1.49400
Zn2379     Zn  0.69697274  0.58372359  0.83882677     1.49100
Zn2380     Zn  0.63900710  0.60227817  0.85455187     1.49500
O2381       O  0.66655438  0.58387567  0.87448009    -1.83400
O2382       O  0.65748248  0.53639380  0.94603419    -0.74000
O2383       O  0.74572587  0.64370215  0.89005259    -0.73900
O2384       O  0.68002127  0.53817498  0.81715576    -0.73400
O2385       O  0.70065271  0.59003165  0.95159205    -0.74100
O2386       O  0.64516490  0.50400668  0.86020687    -0.73700
O2387       O  0.74483365  0.60217385  0.85703313    -0.74200
O2388       O  0.65456965  0.61992989  0.80187408    -0.73600
O2389       O  0.68110197  0.64517972  0.92932825    -0.74400
O2390       O  0.69930048  0.61213584  0.79803994    -0.73800
O2391       O  0.64332068  0.64085151  0.88759147    -0.74200
O2392       O  0.58881385  0.56461817  0.85788265    -0.74200
O2393       O  0.58950246  0.52332394  0.89096441    -0.73900
C2394       C  0.68295045  0.55982233  0.96397758     0.77800
C2395       C  0.76123946  0.63084474  0.87325514     0.78300
C2396       C  0.66019146  0.50852325  0.82960003     0.77300
C2397       C  0.68065555  0.62302069  0.78467700     0.77700
C2398       C  0.65969806  0.65317730  0.91731734     0.78800
C2399       C  0.57325591  0.53583927  0.87446502     0.77900
C2400       C  0.65326612  0.67647921  0.93931266     0.03800
C2401       C  0.65813463  0.70714843  0.92443527    -0.12300
C2402       C  0.65188661  0.72931995  0.94545800     0.01300
C2403       C  0.64008098  0.72036809  0.98106380    -0.10800
C2404       C  0.63525677  0.68967828  0.49663456     0.03800
C2405       C  0.64250248  0.66808003  0.97565903    -0.10300
H2406       H  0.66666114  0.71368822  0.89652966     0.09400
H2407       H  0.63473275  0.73759562  0.49657347     0.07000
H2408       H  0.63858858  0.64421530  0.48700589     0.06800
C2409       C  0.51923520  0.67823107  0.80442403     0.03800
C2410       C  0.54295816  0.70993978  0.81967877    -0.12300
C2411       C  0.57221715  0.73374251  0.80013140     0.01300
C2412       C  0.57653574  0.72569681  0.76436455    -0.10800
C2413       C  0.55259342  0.69396273  0.74843611     0.03800
C2414       C  0.52405312  0.67062099  0.76861610    -0.10300
H2415       H  0.53925915  0.71537142  0.84747757     0.09400
H2416       H  0.59923389  0.74362240  0.74946884     0.07000
H2417       H  0.00598311  0.64602586  0.75673723     0.06800
Zn2418     Zn  0.92414571  0.56263928  0.91678011     1.49700
Zn2419     Zn  0.93845455  0.57585060  0.83305634     1.49400
Zn2420     Zn  0.86766610  0.56387830  0.86501520     1.49100
Zn2421     Zn  0.93582243  0.63262204  0.88362886     1.49500
O2422       O  0.91661263  0.58365859  0.87455976    -1.83400
O2423       O  0.95502517  0.54277285  0.90605763    -0.74000
O2424       O  0.90672805  0.55883603  0.78962798    -0.73900
O2425       O  0.83891125  0.52110434  0.89570791    -0.73400
O2426       O  0.95841992  0.54538956  0.84557051    -0.74100
O2427       O  0.87937979  0.52372699  0.93240334    -0.73700
O2428       O  0.85909857  0.55567461  0.81112838    -0.74200
O2429       O  0.90183288  0.64732219  0.87154091    -0.73600
O2430       O  0.97700223  0.62088997  0.81647938    -0.74400
O2431       O  0.85256093  0.59801344  0.87537191    -0.73800
O2432       O  0.97852234  0.66106180  0.85293950    -0.74200
O2433       O  0.94320202  0.64231533  0.93769489    -0.74200
O2434       O  0.93947910  0.59468737  0.95994700    -0.73900
C2435       C  0.96459865  0.53606525  0.87604213     0.77800
C2436       C  0.87701513  0.55493428  0.78481717     0.78300
C2437       C  0.84813473  0.50986214  0.92275149     0.77300
C2438       C  0.86928014  0.63057285  0.87320820     0.77700
C2439       C  0.99016291  0.65214839  0.82598154     0.78800
C2440       C  0.94336824  0.62445983  0.96439054     0.77900
C2441       C  0.51969876  0.84425759  0.94209856     0.03800
C2442       C  0.52216843  0.85418971  0.97882543    -0.12300
C2443       C  0.55106363  0.86080869  0.49946252     0.01300
C2444       C  0.57662198  0.85596093  0.98328175    -0.10800
C2445       C  0.57369016  0.84521562  0.94727050     0.03800
C2446       C  0.54532358  0.83958759  0.92654715    -0.10300
H2447       H  0.00249154  0.85825166  0.49063196     0.09400
H2448       H  0.59925301  0.86085343  0.49848773     0.07000
H2449       H  0.54332033  0.83184511  0.89829450     0.06800
Zn2450     Zn  0.66596806  0.83425567  0.82179680     1.49700
Zn2451     Zn  0.70253094  0.82991034  0.89596951     1.49400
Zn2452     Zn  0.67000514  0.87590743  0.89545389     1.49100
Zn2453     Zn  0.62286483  0.79649760  0.89369076     1.49500
O2454       O  0.66535818  0.83407378  0.87574166    -1.83400
O2455       O  0.71269598  0.84109567  0.80419754    -0.74000
O2456       O  0.73272381  0.86878839  0.93042742    -0.73900
O2457       O  0.66586166  0.90215741  0.85560071    -0.73400
O2458       O  0.73403585  0.83505439  0.85634612    -0.74100
O2459       O  0.66034634  0.87446610  0.80374665    -0.73700
O2460       O  0.71605542  0.90640448  0.91817216    -0.74200
O2461       O  0.59362001  0.81271524  0.91691436    -0.73600
O2462       O  0.68567763  0.78339072  0.91793022    -0.74400
O2463       O  0.63110639  0.86747595  0.92879720    -0.73800
O2464       O  0.63020285  0.76473741  0.92621135    -0.74200
O2465       O  0.59576886  0.76684401  0.85301909    -0.74200
O2466       O  0.62545997  0.78830137  0.80224873    -0.73900
C2467       C  0.73655336  0.84022845  0.82226971     0.77800
C2468       C  0.73731915  0.89904830  0.93211403     0.78300
C2469       C  0.66144320  0.89946553  0.82143817     0.77300
C2470       C  0.60101623  0.84151633  0.93052854     0.77700
C2471       C  0.65624616  0.76101673  0.92945560     0.78800
C2472       C  0.59922286  0.76492002  0.81902264     0.77900
Zn2473     Zn  0.91510096  0.80187325  0.91033396     1.49700
Zn2474     Zn  0.96203757  0.86018196  0.85662597     1.49400
Zn2475     Zn  0.88462008  0.80316612  0.83958807     1.49100
Zn2476     Zn  0.89671429  0.86027221  0.89591890     1.49500
O2477       O  0.91554288  0.83339858  0.87552200    -1.83400
O2478       O  0.96062783  0.81872324  0.93223325    -0.74000
O2479       O  0.96453801  0.84481571  0.80391438    -0.73900
O2480       O  0.85634073  0.75470491  0.85732904    -0.73400
O2481       O  0.99510010  0.85441503  0.88981956    -0.74100
O2482       O  0.89762676  0.75482666  0.89006432    -0.73700
O2483       O  0.91091754  0.80193515  0.79802521    -0.74200
O2484       O  0.85849111  0.85665852  0.86244363    -0.73600
O2485       O  0.97618129  0.91071031  0.86107029    -0.74400
O2486       O  0.85537611  0.82029410  0.81962744    -0.73800
O2487       O  0.93450200  0.91074865  0.89403835    -0.74200
O2488       O  0.87853927  0.84285443  0.94818031    -0.74200
O2489       O  0.88561636  0.79757304  0.95136453    -0.73900
C2490       C  0.99035263  0.83883519  0.92007916     0.77800
C2491       C  0.94110813  0.81966431  0.78570677     0.78300
C2492       C  0.86915967  0.73879345  0.87340415     0.77300
C2493       C  0.84689760  0.84117264  0.83209911     0.77700
C2494       C  0.96352461  0.92663552  0.87792448     0.78800
C2495       C  0.87497416  0.81634561  0.96500263     0.77900
C2496       C  0.82323159  0.84733632  0.81030914     0.03800
C2497       C  0.83067626  0.85737429  0.77377435    -0.12300
C2498       C  0.80796133  0.86300397  0.75277673     0.01300
C2499       C  0.77658965  0.85657026  0.76837736    -0.10800
C2500       C  0.76863513  0.84586424  0.80468434     0.03800
C2501       C  0.79261540  0.84191426  0.82554703    -0.10300
H2502       H  0.85472289  0.86201009  0.76223690     0.09400
H2503       H  0.75865562  0.86061139  0.75255955     0.07000
H2504       H  0.78733343  0.83388794  0.85370150     0.06800
C2505       C  0.82270416  0.98039730  0.94430673     0.03800
C2506       C  0.79075850  0.95619118  0.92961037    -0.12300
C2507       C  0.76871586  0.92643171  0.94921706     0.01300
C2508       C  0.77817918  0.92164339  0.98395026    -0.10800
C2509       C  0.80940068  0.94639925  0.49977463     0.03800
C2510       C  0.83148315  0.97558177  0.97973579    -0.10300
H2511       H  0.78391166  0.95944106  0.90224201     0.09400
H2512       H  0.76102142  0.89836634  0.49851898     0.07000
H2513       H  0.85592930  0.49421606  0.49146664     0.06800
C2514       C  0.65513673  0.97910454  0.80780608     0.03800
C2515       C  0.66005947  0.95391251  0.82378773    -0.12300
C2516       C  0.65691988  0.92617502  0.80321229     0.01300
C2517       C  0.64778030  0.92364005  0.76645069    -0.10800
C2518       C  0.64155770  0.94836068  0.75015832     0.03800
C2519       C  0.64640262  0.97666646  0.77079953    -0.10300
H2520       H  0.66692497  0.95643507  0.85235295     0.09400
H2521       H  0.64431339  0.90169257  0.75090356     0.07000
H2522       H  0.64180431  0.49589269  0.75870754     0.06800
C2523       C  0.85061040  0.64931762  0.87280312     0.80900
N2524       N  0.86800822  0.68412781  0.87345905    -0.77400
C2525       C  0.85067166  0.70147961  0.87309957     0.83400
N2526       N  0.81596939  0.68406578  0.87287929    -0.77300
C2527       C  0.79852751  0.64935285  0.87258394     0.83500
N2528       N  0.81582497  0.63196972  0.87220639    -0.79000
loop_ 
_geom_bond_atom_site_label_1 
_geom_bond_atom_site_label_2 
_geom_bond_distance 
_geom_bond_site_symmetry_2 
_ccdc_geom_bond_type 
C1           C41   1.478       .  S
C1          N634   1.362       .  A
C1         N1270   1.362   1_455  A
N2            C3   1.362       .  A
N2          C633   1.362   1_545  A
C3          C147   1.479       .  S
C3         N1268   1.361   1_455  A
N4         C1267   1.361       .  A
N4          C637   1.361   1_545  A
C5          C104   1.479       .  S
C5            N6   1.361       .  A
C5          N636   1.361       .  A
N6         C1265   1.362       .  A
C7           C43   1.457       .  S
C7            N8   1.355       .  A
C7           N12   1.356       .  A
N8            C9   1.355       .  A
C9          C144   1.457       .  S
C9           N10   1.357       .  A
N10          C11   1.357       .  A
C11         C108   1.459       .  S
C11          N12   1.356       .  A
C13         C106   1.467       .  S
C13          C14   1.405       .  A
C13          C18   1.394       .  A
C14         C331   1.404       .  A
C14         H335   1.084       .  S
C15         C283   1.485       .  S
C15         C330   1.404       .  A
C15         C332   1.416       .  A
C16          C17   1.402       .  A
C16         C331   1.416       .  A
C16         H336   1.083       .  S
C17          C84   1.485       .  S
C17          C18   1.407       .  A
C18          H21   1.084       .  S
H19         C330   1.084       .  S
H20         C332   1.083       .  S
Zn22         O26   1.950       .  S
Zn22         O27   2.073       .  S
Zn22         O31   2.042       .  S
Zn22         O38   2.045       .  S
Zn23         O26   1.907       .  S
Zn23         O28   1.977       .  S
Zn23         O30   1.941       .  S
Zn23         O34   2.008       .  S
Zn24         O26   1.946       .  S
Zn24         O29   2.047       .  S
Zn24         O32   2.049       .  S
Zn24         O35   2.071       .  S
Zn25         O26   1.914       .  S
Zn25         O33   1.957       .  S
Zn25         O36   2.009       .  S
Zn25         O37   1.982       .  S
O27          C39   1.281       .  A
O28          C40   1.266       .  A
O29          C41   1.280       .  A
O30          C39   1.267       .  A
O31          C41   1.280       .  A
O32          C40   1.277       .  A
O33          C42   1.269       .  A
O34          C43   1.270       .  A
O35          C42   1.282       .  A
O36          C43   1.271       .  A
O37          C44   1.267       .  A
O38          C44   1.277       .  A
C39         C231   1.479   1_554  S
C40         C677   1.468       .  S
C42         C306   1.480       .  S
C44        C1318   1.466   1_455  S
C45         C672   1.468   1_545  S
C45          C46   1.394       .  A
C45          C50   1.405       .  A
C46          C47   1.406       .  A
C46          H51   1.084       .  S
C47          C85   1.485       .  S
C47          C48   1.403       .  A
C48         C365   1.416       .  A
C48         H368   1.083       .  S
C49         C182   1.486       .  S
C49         C364   1.416       .  A
C49         C366   1.405       .  A
C50         C365   1.405       .  A
C50        H1001   1.084       .  S
H52         C364   1.083       .  S
H53         C998   1.084       .  S
C54        C1308   1.466       .  S
C54          C55   1.410       .  A
C54          C59   1.399       .  A
C55          C56   1.405       .  A
C55        H1324   1.084       .  S
C56         C279   1.484       .  S
C56          C57   1.411       .  A
C57          C58   1.395       .  A
C57          H61   1.084       .  S
C58          C81   1.467       .  S
C58          C59   1.399       .  A
C59          H62   1.084       .  S
H60        C1319   1.084       .  S
Zn63         O67   1.924       .  S
Zn63         O68   2.024       .  S
Zn63         O72   2.010       .  S
Zn63         O79   1.967       .  S
Zn64         O67   1.924       .  S
Zn64         O69   2.022       .  S
Zn64         O71   2.002       .  S
Zn64         O75   1.958       .  S
Zn65         O67   1.921       .  S
Zn65         O70   2.024       .  S
Zn65         O73   2.002       .  S
Zn65         O76   1.964       .  S
Zn66         O67   1.987       .  S
Zn66         O74   2.080       .  S
Zn66         O77   2.074       .  S
Zn66         O78   2.069       .  S
O68          C80   1.274       .  A
O69          C81   1.274       .  A
O70          C82   1.273       .  A
O71          C80   1.270       .  A
O72          C82   1.272       .  A
O73          C81   1.271       .  A
O74          C83   1.280       .  A
O75          C84   1.268       .  A
O76          C83   1.270       .  A
O77          C84   1.281       .  A
O78          C85   1.281       .  A
O79          C85   1.270       .  A
C80         C122   1.466       .  S
C82         C111   1.467       .  S
C83         C154   1.488       .  S
Zn86         O90   1.910       .  S
Zn86         O91   1.972       .  S
Zn86         O95   1.968       .  S
Zn86        O102   2.011       .  S
Zn87         O90   1.947       .  S
Zn87         O92   2.044       .  S
Zn87         O94   2.047       .  S
Zn87         O98   2.069       .  S
Zn88         O90   1.946       .  S
Zn88         O93   2.085       .  S
Zn88         O96   2.055       .  S
Zn88         O99   2.058       .  S
Zn89         O90   1.906       .  S
Zn89         O97   1.963       .  S
Zn89        O100   1.950       .  S
Zn89        O101   2.007       .  S
O91         C103   1.268       .  A
O92         C104   1.280       .  A
O93         C105   1.285       .  A
O94         C103   1.276       .  A
O95         C105   1.270       .  A
O96         C104   1.281       .  A
O97         C106   1.265       .  A
O98         C107   1.282       .  A
O99         C106   1.279       .  A
O100        C107   1.267       .  A
O101        C108   1.270       .  A
O102        C108   1.271       .  A
C103        C741   1.464       .  S
C105        C286   1.486       .  S
C107        C297   1.480   1_554  S
C109        C735   1.464   1_545  S
C109        C110   1.399       .  A
C109        C114   1.403       .  A
C110        C111   1.404       .  A
C110        H115   1.084       .  S
C111        C112   1.402       .  A
C112        C113   1.406       .  A
C112        H116   1.084       .  S
C113        C224   1.468       .  S
C113        C114   1.398       .  A
C114        H749   1.084       .  S
H117        C746   1.084       .  S
C118        C146   1.465       .  S
C118        C119   1.409       .  A
C118        C123   1.400       .  A
C119        C120   1.403       .  A
C119        H124   1.084       .  S
C120        C185   1.482       .  S
C120        C121   1.411       .  A
C121        C122   1.394       .  A
C121        H125   1.084       .  S
C122        C123   1.399       .  A
C123        H126   1.084       .  S
Zn127       O131   1.908       .  S
Zn127       O132   2.003       .  S
Zn127       O136   1.970       .  S
Zn127       O143   1.963       .  S
Zn128       O131   1.902       .  S
Zn128       O133   1.951       .  S
Zn128       O135   2.009       .  S
Zn128       O139   1.969       .  S
Zn129       O131   1.948       .  S
Zn129       O134   2.050       .  S
Zn129       O137   2.083       .  S
Zn129       O140   2.050       .  S
Zn130       O131   1.941       .  S
Zn130       O138   2.045       .  S
Zn130       O141   2.047       .  S
Zn130       O142   2.069       .  S
O132        C144   1.270       .  A
O133        C145   1.268       .  A
O134        C146   1.278       .  A
O135        C144   1.271       .  A
O136        C146   1.267       .  A
O137        C145   1.283       .  A
O138        C147   1.280       .  A
O139        C148   1.267       .  A
O140        C147   1.281       .  A
O141        C148   1.276       .  A
O142        C149   1.283       .  A
O143        C149   1.268       .  A
C145        C192   1.483   1_554  S
C148       C1414   1.465   1_455  S
C149        C201   1.482       .  S
C150       C1412   1.465       .  S
C150        C151   1.398       .  A
C150        C155   1.393       .  A
C151        C468   1.398       .  A
C151       H1736   1.085       .  S
C152        C228   1.471       .  S
C152        C467   1.398       .  A
C152        C469   1.413       .  A
C153        C154   1.410       .  A
C153        C468   1.413       .  A
C153        H473   1.083   1_554  S
C154        C155   1.411       .  A
C155        H158   1.084       .  S
H156       C1731   1.085       .  S
H157        C469   1.083       .  S
C159        C223   1.471       .  S
C159       N1424   1.359       .  A
C159        N796   1.360   1_545  A
N160        C161   1.361       .  A
N160       C1423   1.359   1_455  A
C161        C187   1.477       .  S
C161        N794   1.362   1_545  A
N162        C793   1.362       .  A
N162       C1427   1.362   1_455  A
C163        C282   1.477       .  S
C163        N164   1.361       .  A
C163       N1426   1.362       .  A
N164        C791   1.360       .  A
Zn165       O169   1.947       .  S
Zn165       O170   2.081       .  S
Zn165       O174   2.050       .  S
Zn165       O181   2.047       .  S
Zn166       O169   1.912       .  S
Zn166       O171   2.010       .  S
Zn166       O173   1.968       .  S
Zn166       O177   1.979       .  S
Zn167       O169   1.902       .  S
Zn167       O172   1.963       .  S
Zn167       O175   1.998       .  S
Zn167       O178   1.943       .  S
Zn168       O169   1.951       .  S
Zn168       O176   2.080       .  S
Zn168       O179   2.048       .  S
Zn168       O180   2.041       .  S
O170        C182   1.283       .  A
O171        C183   1.271       .  A
O172        C184   1.265       .  A
O173        C182   1.269       .  A
O174        C184   1.277       .  A
O175        C183   1.269       .  A
O176        C185   1.282       .  A
O177        C186   1.268       .  A
O178        C185   1.267       .  A
O179        C186   1.277       .  A
O180        C187   1.280       .  A
O181        C187   1.281       .  A
C183        C315   1.455       .  S
C184        C934   1.465   1_545  S
C186        C188   1.466       .  S
C188        C189   1.400       .  A
C188        C193   1.408       .  A
C189        C190   1.400       .  A
C189        H194   1.084       .  S
C190        C259   1.466       .  S
C190        C191   1.396       .  A
C191        C508   1.411       .  A
C191        H511   1.084       .  S
C192        C507   1.411       .  A
C192        C509   1.403       .  A
C193        C508   1.403       .  A
C193        H512   1.084       .  S
H195        C507   1.084       .  S
H196        C509   1.084       .  S
C197       C1491   1.479   1_455  S
C197        C198   1.401       .  A
C197        C202   1.404       .  A
C198        C199   1.412       .  A
C198        H203   1.083       .  S
C199        C260   1.489       .  S
C199        C200   1.403       .  A
C200        C201   1.414       .  A
C200        H204   1.083       .  S
C201        C202   1.400       .  A
C202       H1469   1.084       .  S
H205       C1466   1.084       .  S
Zn206       O210   1.937       .  S
Zn206       O211   2.039       .  S
Zn206       O215   1.983       .  S
Zn206       O222   2.017       .  S
Zn207       O210   1.943       .  S
Zn207       O212   2.018       .  S
Zn207       O214   2.039       .  S
Zn207       O218   1.995       .  S
Zn208       O210   1.953       .  S
Zn208       O213   2.043       .  S
Zn208       O216   2.015       .  S
Zn208       O219   2.009       .  S
Zn209       O210   1.953       .  S
Zn209       O217   2.003       .  S
Zn209       O220   2.039       .  S
Zn209       O221   2.025       .  S
O211        C223   1.276       .  A
O212        C224   1.274       .  A
O213        C225   1.277       .  A
O214        C223   1.276       .  A
O215        C225   1.271       .  A
O216        C224   1.273       .  A
O217        C226   1.272       .  A
O218        C227   1.272       .  A
O219        C226   1.273       .  A
O220        C227   1.278       .  A
O221        C228   1.273       .  A
O222        C228   1.274       .  A
C225        C925   1.478   1_545  S
C226        C311   1.463       .  S
C227       C1461   1.479       .  S
C229       C1542   1.462   1_455  S
C229        C230   1.408       .  A
C229        C234   1.398       .  A
C230        C547   1.403       .  A
C230       H1815   1.084       .  S
C231        C546   1.403       .  A
C231        C548   1.410       .  A
C232        C233   1.392       .  A
C232        C547   1.410       .  A
C232        H552   1.084       .  S
C233        C258   1.462       .  S
C233        C234   1.397       .  A
C234        H237   1.084       .  S
H235       C1810   1.084       .  S
H236        C548   1.084       .  S
Zn238       O242   1.983       .  S
Zn238       O243   2.076       .  S
Zn238       O247   2.064       .  S
Zn238       O254   2.082       .  S
Zn239       O242   1.927       .  S
Zn239       O244   2.030       .  S
Zn239       O246   1.968       .  S
Zn239       O250   2.009       .  S
Zn240       O242   1.931       .  S
Zn240       O245   1.952       .  S
Zn240       O248   2.006       .  S
Zn240       O251   2.016       .  S
Zn241       O242   1.930       .  S
Zn241       O249   1.995       .  S
Zn241       O252   2.018       .  S
Zn241       O253   1.965       .  S
O243        C255   1.281       .  A
O244        C256   1.275       .  A
O245        C257   1.267       .  A
O246        C255   1.269       .  A
O247        C257   1.280       .  A
O248        C256   1.270       .  A
O249        C258   1.269       .  A
O250        C259   1.272       .  A
O251        C258   1.273       .  A
O252        C259   1.273       .  A
O253        C260   1.268       .  A
O254        C260   1.282       .  A
C255        C288   1.487       .  S
C256        C295   1.471       .  S
C257        C304   1.481       .  S
Zn261       O265   1.907       .  S
Zn261       O266   1.967       .  S
Zn261       O270   1.998       .  S
Zn261       O277   1.957       .  S
Zn262       O265   1.950       .  S
Zn262       O267   2.079       .  S
Zn262       O269   2.041       .  S
Zn262       O273   2.041       .  S
Zn263       O265   1.904       .  S
Zn263       O268   2.009       .  S
Zn263       O271   1.954       .  S
Zn263       O274   1.975       .  S
Zn264       O265   1.947       .  S
Zn264       O272   2.056       .  S
Zn264       O275   2.048       .  S
Zn264       O276   2.084       .  S
O266        C278   1.266       .  A
O267        C279   1.281       .  A
O268        C280   1.272       .  A
O269        C278   1.276       .  A
O270        C280   1.269       .  A
O271        C279   1.268       .  A
O272        C281   1.278       .  A
O273        C282   1.280       .  A
O274        C281   1.267       .  A
O275        C282   1.281       .  A
O276        C283   1.284       .  A
O277        C283   1.268       .  A
C278       C1493   1.462       .  S
C280        C313   1.455       .  S
C281        C284   1.468       .  S
C284        C285   1.404       .  A
C284        C289   1.395       .  A
C285        C286   1.404       .  A
C285        H290   1.084       .  S
C286        C287   1.417       .  A
C287        C288   1.405       .  A
C287        H291   1.083       .  S
C288        C289   1.408       .  A
C289        H292   1.084       .  S
C293        C857   1.478       .  S
C293        C294   1.405       .  A
C293        C298   1.409       .  A
C294        C295   1.405       .  A
C294        H299   1.084       .  S
C295        C296   1.397       .  A
C296        C613   1.408       .  A
C296        H616   1.084       .  S
C297        C612   1.408       .  A
C297        C614   1.398       .  A
C298        C613   1.398       .  A
C298       H1249   1.084       .  S
H300        C612   1.084       .  S
H301       C1246   1.084       .  S
C302        C816   1.465       .  S
C302        C303   1.393       .  A
C302        C307   1.404       .  A
C303        C304   1.406       .  A
C303        H308   1.084       .  S
C304        C305   1.400       .  A
C305        C306   1.413       .  A
C305        H309   1.083       .  S
C306        C307   1.403       .  A
C307        H942   1.084       .  S
H310        C939   1.084       .  S
C311        N312   1.358       .  A
C311        N316   1.357       .  A
N312        C313   1.357       .  A
C313        N314   1.354       .  A
N314        C315   1.354       .  A
C315        N316   1.356       .  A
C317        C357   1.478       .  S
C317        N950   1.362       .  A
C317       N1586   1.362   1_455  A
N318        C949   1.362   1_545  A
N318        C319   1.362       .  A
C319        C463   1.479       .  S
C319       N1584   1.361   1_455  A
N320       C1583   1.361       .  A
N320        C953   1.361   1_545  A
C321        C420   1.479       .  S
C321        N952   1.361       .  A
C321        N322   1.361       .  A
N322       C1581   1.362       .  A
C323        C359   1.457       .  S
C323        N324   1.355       .  A
C323        N328   1.356       .  A
N324        C325   1.355       .  A
C325        C460   1.457       .  S
C325        N326   1.357       .  A
N326        C327   1.357       .  A
C327        C424   1.459       .  S
C327        N328   1.356       .  A
C329        C422   1.467       .  S
C329        C330   1.405       .  A
C329        C334   1.394       .  A
C331        C599   1.485   1_554  S
C332        C333   1.402       .  A
C333        C400   1.485       .  S
C333        C334   1.407       .  A
C334        H337   1.084       .  S
Zn338       O342   1.950       .  S
Zn338       O343   2.073       .  S
Zn338       O347   2.042       .  S
Zn338       O354   2.045       .  S
Zn339       O342   1.907       .  S
Zn339       O344   1.977       .  S
Zn339       O346   1.941       .  S
Zn339       O350   2.008       .  S
Zn340       O342   1.946       .  S
Zn340       O345   2.047       .  S
Zn340       O348   2.049       .  S
Zn340       O351   2.071       .  S
Zn341       O342   1.914       .  S
Zn341       O349   1.957       .  S
Zn341       O352   2.009       .  S
Zn341       O353   1.982       .  S
O343        C355   1.281       .  A
O344        C356   1.266       .  A
O345        C357   1.280       .  A
O346        C355   1.267       .  A
O347        C357   1.280       .  A
O348        C356   1.277       .  A
O349        C358   1.269       .  A
O350        C359   1.270       .  A
O351        C358   1.282       .  A
O352        C359   1.271       .  A
O353        C360   1.267       .  A
O354        C360   1.277       .  A
C355        C547   1.479       .  S
C356        C993   1.468       .  S
C358        C622   1.480       .  S
C360       C1634   1.466   1_455  S
C361        C988   1.468   1_545  S
C361        C362   1.394       .  A
C361        C366   1.405       .  A
C362        C363   1.406       .  A
C362        H367   1.084       .  S
C363        C401   1.485       .  S
C363        C364   1.403       .  A
C365        C498   1.486   1_554  S
C366        H685   1.084       .  S
H369        C682   1.084       .  S
C370       C1624   1.466       .  S
C370        C371   1.410       .  A
C370        C375   1.399       .  A
C371        C372   1.405       .  A
C371       H1640   1.084       .  S
C372        C595   1.484       .  S
C372        C373   1.411       .  A
C373        C374   1.395       .  A
C373        H377   1.084       .  S
C374        C397   1.467       .  S
C374        C375   1.399       .  A
C375        H378   1.084       .  S
H376       C1635   1.084       .  S
Zn379       O383   1.924       .  S
Zn379       O384   2.024       .  S
Zn379       O388   2.010       .  S
Zn379       O395   1.967       .  S
Zn380       O383   1.924       .  S
Zn380       O385   2.022       .  S
Zn380       O387   2.002       .  S
Zn380       O391   1.958       .  S
Zn381       O383   1.921       .  S
Zn381       O386   2.024       .  S
Zn381       O389   2.002       .  S
Zn381       O392   1.964       .  S
Zn382       O383   1.987       .  S
Zn382       O390   2.080       .  S
Zn382       O393   2.074       .  S
Zn382       O394   2.069       .  S
O384        C396   1.274       .  A
O385        C397   1.274       .  A
O386        C398   1.273       .  A
O387        C396   1.270       .  A
O388        C398   1.272       .  A
O389        C397   1.271       .  A
O390        C399   1.280       .  A
O391        C400   1.268       .  A
O392        C399   1.270       .  A
O393        C400   1.281       .  A
O394        C401   1.281       .  A
O395        C401   1.270       .  A
C396        C438   1.466       .  S
C398        C427   1.467       .  S
C399        C470   1.488       .  S
Zn402       O406   1.910       .  S
Zn402       O407   1.972       .  S
Zn402       O411   1.968       .  S
Zn402       O418   2.011       .  S
Zn403       O406   1.947       .  S
Zn403       O408   2.044       .  S
Zn403       O410   2.047       .  S
Zn403       O414   2.070       .  S
Zn404       O406   1.946       .  S
Zn404       O409   2.085       .  S
Zn404       O412   2.055       .  S
Zn404       O415   2.058       .  S
Zn405       O406   1.906       .  S
Zn405       O413   1.963       .  S
Zn405       O416   1.950       .  S
Zn405       O417   2.007       .  S
O407        C419   1.268       .  A
O408        C420   1.280       .  A
O409        C421   1.285       .  A
O410        C419   1.276       .  A
O411        C421   1.270       .  A
O412        C420   1.281       .  A
O413        C422   1.265       .  A
O414        C423   1.282       .  A
O415        C422   1.279       .  A
O416        C423   1.267       .  A
O417        C424   1.270       .  A
O418        C424   1.271       .  A
C419       C1057   1.464       .  S
C421        C602   1.486       .  S
C423        C613   1.480       .  S
C425       C1051   1.464   1_545  S
C425        C426   1.399       .  A
C425        C430   1.403       .  A
C426        C427   1.404       .  A
C426        H431   1.084       .  S
C427        C428   1.402       .  A
C428        C429   1.406       .  A
C428        H432   1.084       .  S
C429        C540   1.468       .  S
C429        C430   1.398       .  A
C430       H1065   1.084       .  S
H433       C1062   1.084       .  S
C434        C462   1.465       .  S
C434        C435   1.409       .  A
C434        C439   1.400       .  A
C435        C436   1.403       .  A
C435        H440   1.084       .  S
C436        C501   1.482       .  S
C436        C437   1.411       .  A
C437        C438   1.394       .  A
C437        H441   1.084       .  S
C438        C439   1.399       .  A
C439        H442   1.084       .  S
Zn443       O447   1.908       .  S
Zn443       O448   2.003       .  S
Zn443       O452   1.970       .  S
Zn443       O459   1.963       .  S
Zn444       O447   1.902       .  S
Zn444       O449   1.951       .  S
Zn444       O451   2.009       .  S
Zn444       O455   1.969       .  S
Zn445       O447   1.948       .  S
Zn445       O450   2.050       .  S
Zn445       O453   2.083       .  S
Zn445       O456   2.050       .  S
Zn446       O447   1.941       .  S
Zn446       O454   2.045       .  S
Zn446       O457   2.047       .  S
Zn446       O458   2.069       .  S
O448        C460   1.270       .  A
O449        C461   1.268       .  A
O450        C462   1.278       .  A
O451        C460   1.271       .  A
O452        C462   1.267       .  A
O453        C461   1.283       .  A
O454        C463   1.280       .  A
O455        C464   1.267       .  A
O456        C463   1.281       .  A
O457        C464   1.276       .  A
O458        C465   1.283       .  A
O459        C465   1.268       .  A
C461        C508   1.483       .  S
C464       C1730   1.465   1_455  S
C465        C517   1.482       .  S
C466       C1728   1.465       .  S
C466        C467   1.398       .  A
C466        C471   1.393       .  A
C467       H1420   1.085       .  S
C468        C544   1.471   1_554  S
C469        C470   1.410       .  A
C470        C471   1.411       .  A
C471        H474   1.084       .  S
H472       C1415   1.085       .  S
C475        C539   1.471       .  S
C475       N1740   1.359       .  A
C475       N1112   1.360   1_545  A
N476       C1739   1.359   1_455  A
N476        C477   1.361       .  A
C477        C503   1.477       .  S
C477       N1110   1.362   1_545  A
N478       C1109   1.362       .  A
N478       C1743   1.362   1_455  A
C479        C598   1.477       .  S
C479       N1742   1.362       .  A
C479        N480   1.361       .  A
N480       C1107   1.360       .  A
Zn481       O485   1.947       .  S
Zn481       O486   2.081       .  S
Zn481       O490   2.050       .  S
Zn481       O497   2.047       .  S
Zn482       O485   1.912       .  S
Zn482       O487   2.010       .  S
Zn482       O489   1.968       .  S
Zn482       O493   1.979       .  S
Zn483       O485   1.902       .  S
Zn483       O488   1.963       .  S
Zn483       O491   1.998       .  S
Zn483       O494   1.943       .  S
Zn484       O485   1.951       .  S
Zn484       O492   2.080       .  S
Zn484       O495   2.048       .  S
Zn484       O496   2.041       .  S
O486        C498   1.283       .  A
O487        C499   1.271       .  A
O488        C500   1.265       .  A
O489        C498   1.269       .  A
O490        C500   1.277       .  A
O491        C499   1.269       .  A
O492        C501   1.282       .  A
O493        C502   1.268       .  A
O494        C501   1.267       .  A
O495        C502   1.277       .  A
O496        C503   1.280       .  A
O497        C503   1.281       .  A
C499        C631   1.455       .  S
C500       C1250   1.465   1_545  S
C502        C504   1.466       .  S
C504        C505   1.400       .  A
C504        C509   1.408       .  A
C505        C506   1.400       .  A
C505        H510   1.084       .  S
C506        C575   1.466       .  S
C506        C507   1.396       .  A
C513       C1807   1.479   1_455  S
C513        C514   1.401       .  A
C513        C518   1.404       .  A
C514        C515   1.412       .  A
C514        H519   1.083       .  S
C515        C576   1.489       .  S
C515        C516   1.403       .  A
C516        C517   1.414       .  A
C516        H520   1.083       .  S
C517        C518   1.400       .  A
C518       H1785   1.084       .  S
H521       C1782   1.084       .  S
Zn522       O526   1.937       .  S
Zn522       O527   2.039       .  S
Zn522       O531   1.983       .  S
Zn522       O538   2.017       .  S
Zn523       O526   1.943       .  S
Zn523       O528   2.018       .  S
Zn523       O530   2.039       .  S
Zn523       O534   1.995       .  S
Zn524       O526   1.953       .  S
Zn524       O529   2.043       .  S
Zn524       O532   2.015       .  S
Zn524       O535   2.009       .  S
Zn525       O526   1.953       .  S
Zn525       O533   2.003       .  S
Zn525       O536   2.039       .  S
Zn525       O537   2.025       .  S
O527        C539   1.276       .  A
O528        C540   1.274       .  A
O529        C541   1.277       .  A
O530        C539   1.276       .  A
O531        C541   1.271       .  A
O532        C540   1.273       .  A
O533        C542   1.272       .  A
O534        C543   1.272       .  A
O535        C542   1.273       .  A
O536        C543   1.278       .  A
O537        C544   1.273       .  A
O538        C544   1.274       .  A
C541       C1241   1.478   1_545  S
C542        C627   1.463       .  S
C543       C1777   1.479       .  S
C545       C1858   1.462   1_455  S
C545        C546   1.408       .  A
C545        C550   1.398       .  A
C546       H1499   1.084       .  S
C548        C549   1.392       .  A
C549        C574   1.462       .  S
C549        C550   1.397       .  A
C550        H553   1.084       .  S
H551       C1494   1.084       .  S
Zn554       O558   1.983       .  S
Zn554       O559   2.076       .  S
Zn554       O563   2.064       .  S
Zn554       O570   2.082       .  S
Zn555       O558   1.927       .  S
Zn555       O560   2.030       .  S
Zn555       O562   1.968       .  S
Zn555       O566   2.009       .  S
Zn556       O558   1.931       .  S
Zn556       O561   1.952       .  S
Zn556       O564   2.006       .  S
Zn556       O567   2.016       .  S
Zn557       O558   1.930       .  S
Zn557       O565   1.995       .  S
Zn557       O568   2.018       .  S
Zn557       O569   1.965       .  S
O559        C571   1.281       .  A
O560        C572   1.275       .  A
O561        C573   1.267       .  A
O562        C571   1.269       .  A
O563        C573   1.280       .  A
O564        C572   1.270       .  A
O565        C574   1.269       .  A
O566        C575   1.272       .  A
O567        C574   1.273       .  A
O568        C575   1.273       .  A
O569        C576   1.268       .  A
O570        C576   1.282       .  A
C571        C604   1.487       .  S
C572        C611   1.471       .  S
C573        C620   1.481       .  S
Zn577       O581   1.907       .  S
Zn577       O582   1.967       .  S
Zn577       O586   1.998       .  S
Zn577       O593   1.957       .  S
Zn578       O581   1.950       .  S
Zn578       O583   2.079       .  S
Zn578       O585   2.041       .  S
Zn578       O589   2.041       .  S
Zn579       O581   1.904       .  S
Zn579       O584   2.009       .  S
Zn579       O587   1.954       .  S
Zn579       O590   1.975       .  S
Zn580       O581   1.947       .  S
Zn580       O588   2.056       .  S
Zn580       O591   2.048       .  S
Zn580       O592   2.084       .  S
O582        C594   1.266       .  A
O583        C595   1.281       .  A
O584        C596   1.272       .  A
O585        C594   1.276       .  A
O586        C596   1.269       .  A
O587        C595   1.268       .  A
O588        C597   1.278       .  A
O589        C598   1.280       .  A
O590        C597   1.267       .  A
O591        C598   1.281       .  A
O592        C599   1.284       .  A
O593        C599   1.268       .  A
C594       C1809   1.462       .  S
C596        C629   1.455       .  S
C597        C600   1.468       .  S
C600        C601   1.404       .  A
C600        C605   1.395       .  A
C601        C602   1.404       .  A
C601        H606   1.084       .  S
C602        C603   1.417       .  A
C603        C604   1.405       .  A
C603        H607   1.083       .  S
C604        C605   1.408       .  A
C605        H608   1.084       .  S
C609       C1173   1.478       .  S
C609        C610   1.405       .  A
C609        C614   1.409       .  A
C610        C611   1.405       .  A
C610        H615   1.084       .  S
C611        C612   1.397       .  A
C614        H933   1.084       .  S
H617        C930   1.084       .  S
C618       C1132   1.465       .  S
C618        C619   1.393       .  A
C618        C623   1.404       .  A
C619        C620   1.406       .  A
C619        H624   1.084       .  S
C620        C621   1.400       .  A
C621        C622   1.413       .  A
C621        H625   1.083       .  S
C622        C623   1.403       .  A
C623       H1258   1.084       .  S
H626       C1255   1.084       .  S
C627        N628   1.358       .  A
C627        N632   1.357       .  A
N628        C629   1.357       .  A
C629        N630   1.354       .  A
N630        C631   1.354       .  A
C631        N632   1.356       .  A
C633        C673   1.478       .  S
C633       N1902   1.362   1_455  A
N634        C635   1.362       .  A
C635        C779   1.479       .  S
C635       N1900   1.361   1_455  A
N636       C1899   1.361       .  A
C637        C736   1.479       .  S
C637        N638   1.361       .  A
N638       C1897   1.362       .  A
C639        C675   1.457       .  S
C639        N640   1.355       .  A
C639        N644   1.356       .  A
N640        C641   1.355       .  A
C641        C776   1.457       .  S
C641        N642   1.357       .  A
N642        C643   1.357       .  A
C643        C740   1.459       .  S
C643        N644   1.356       .  A
C645        C738   1.467       .  S
C645        C646   1.405       .  A
C645        C650   1.394       .  A
C646        C963   1.404       .  A
C646        H967   1.084       .  S
C647        C915   1.485       .  S
C647        C962   1.404       .  A
C647        C964   1.416       .  A
C648        C963   1.416       .  A
C648        C649   1.402       .  A
C648        H968   1.083       .  S
C649        C716   1.485       .  S
C649        C650   1.407       .  A
C650        H653   1.084       .  S
H651        C962   1.084       .  S
H652        C964   1.083       .  S
Zn654       O658   1.950       .  S
Zn654       O659   2.073       .  S
Zn654       O663   2.042       .  S
Zn654       O670   2.045       .  S
Zn655       O658   1.907       .  S
Zn655       O660   1.977       .  S
Zn655       O662   1.941       .  S
Zn655       O666   2.008       .  S
Zn656       O658   1.946       .  S
Zn656       O661   2.047       .  S
Zn656       O664   2.049       .  S
Zn656       O667   2.071       .  S
Zn657       O658   1.914       .  S
Zn657       O665   1.957       .  S
Zn657       O668   2.009       .  S
Zn657       O669   1.982       .  S
O659        C671   1.281       .  A
O660        C672   1.266       .  A
O661        C673   1.280       .  A
O662        C671   1.267       .  A
O663        C673   1.280       .  A
O664        C672   1.277       .  A
O665        C674   1.269       .  A
O666        C675   1.270       .  A
O667        C674   1.282       .  A
O668        C675   1.271       .  A
O669        C676   1.267       .  A
O670        C676   1.277       .  A
C671        C863   1.479   1_554  S
C674        C938   1.480       .  S
C676       C1950   1.466   1_455  S
C677        C678   1.394       .  A
C677        C682   1.405       .  A
C678        C679   1.406       .  A
C678        H683   1.084       .  S
C679        C717   1.485       .  S
C679        C680   1.403       .  A
C680        C997   1.416       .  A
C680       H1000   1.083       .  S
C681        C814   1.486       .  S
C681        C996   1.416       .  A
C681        C998   1.405       .  A
C682        C997   1.405       .  A
H684        C996   1.083       .  S
C686       C1940   1.466       .  S
C686        C687   1.410       .  A
C686        C691   1.399       .  A
C687        C688   1.405       .  A
C687       H1956   1.084       .  S
C688        C911   1.484       .  S
C688        C689   1.411       .  A
C689        C690   1.395       .  A
C689        H693   1.084       .  S
C690        C713   1.467       .  S
C690        C691   1.399       .  A
C691        H694   1.084       .  S
H692       C1951   1.084       .  S
Zn695       O699   1.924       .  S
Zn695       O700   2.024       .  S
Zn695       O704   2.010       .  S
Zn695       O711   1.967       .  S
Zn696       O699   1.924       .  S
Zn696       O701   2.022       .  S
Zn696       O703   2.002       .  S
Zn696       O707   1.958       .  S
Zn697       O699   1.921       .  S
Zn697       O702   2.024       .  S
Zn697       O705   2.002       .  S
Zn697       O708   1.964       .  S
Zn698       O699   1.987       .  S
Zn698       O706   2.080       .  S
Zn698       O709   2.074       .  S
Zn698       O710   2.069       .  S
O700        C712   1.274       .  A
O701        C713   1.274       .  A
O702        C714   1.273       .  A
O703        C712   1.270       .  A
O704        C714   1.272       .  A
O705        C713   1.271       .  A
O706        C715   1.280       .  A
O707        C716   1.268       .  A
O708        C715   1.270       .  A
O709        C716   1.281       .  A
O710        C717   1.281       .  A
O711        C717   1.270       .  A
C712        C754   1.466       .  S
C714        C743   1.467       .  S
C715        C786   1.488       .  S
Zn718       O722   1.910       .  S
Zn718       O723   1.972       .  S
Zn718       O727   1.968       .  S
Zn718       O734   2.011       .  S
Zn719       O722   1.947       .  S
Zn719       O724   2.044       .  S
Zn719       O726   2.047       .  S
Zn719       O730   2.070       .  S
Zn720       O722   1.946       .  S
Zn720       O725   2.085       .  S
Zn720       O728   2.055       .  S
Zn720       O731   2.058       .  S
Zn721       O722   1.906       .  S
Zn721       O729   1.963       .  S
Zn721       O732   1.950       .  S
Zn721       O733   2.007       .  S
O723        C735   1.268       .  A
O724        C736   1.280       .  A
O725        C737   1.285       .  A
O726        C735   1.276       .  A
O727        C737   1.270       .  A
O728        C736   1.281       .  A
O729        C738   1.265       .  A
O730        C739   1.282       .  A
O731        C738   1.279       .  A
O732        C739   1.267       .  A
O733        C740   1.270       .  A
O734        C740   1.271       .  A
C737        C918   1.486       .  S
C739        C929   1.480   1_554  S
C741        C742   1.399       .  A
C741        C746   1.403       .  A
C742        C743   1.404       .  A
C742        H747   1.085       .  S
C743        C744   1.402       .  A
C744        C745   1.406       .  A
C744        H748   1.084       .  S
C745        C856   1.468       .  S
C745        C746   1.398       .  A
C750        C778   1.465       .  S
C750        C751   1.409       .  A
C750        C755   1.400       .  A
C751        C752   1.403       .  A
C751        H756   1.084       .  S
C752        C817   1.482       .  S
C752        C753   1.411       .  A
C753        C754   1.394       .  A
C753        H757   1.084       .  S
C754        C755   1.399       .  A
C755        H758   1.084       .  S
Zn759       O763   1.908       .  S
Zn759       O764   2.003       .  S
Zn759       O768   1.970       .  S
Zn759       O775   1.963       .  S
Zn760       O763   1.902       .  S
Zn760       O765   1.951       .  S
Zn760       O767   2.009       .  S
Zn760       O771   1.969       .  S
Zn761       O763   1.948       .  S
Zn761       O766   2.050       .  S
Zn761       O769   2.083       .  S
Zn761       O772   2.050       .  S
Zn762       O763   1.941       .  S
Zn762       O770   2.045       .  S
Zn762       O773   2.047       .  S
Zn762       O774   2.069       .  S
O764        C776   1.270       .  A
O765        C777   1.268       .  A
O766        C778   1.278       .  A
O767        C776   1.271       .  A
O768        C778   1.267       .  A
O769        C777   1.283       .  A
O770        C779   1.280       .  A
O771        C780   1.267       .  A
O772        C779   1.281       .  A
O773        C780   1.276       .  A
O774        C781   1.283       .  A
O775        C781   1.268       .  A
C777        C824   1.483   1_554  S
C780       C2046   1.465   1_455  S
C781        C833   1.482       .  S
C782       C2044   1.465       .  S
C782        C783   1.398       .  A
C782        C787   1.393       .  A
C783       C1100   1.398       .  A
C783       H2368   1.085       .  S
C784        C860   1.471       .  S
C784       C1099   1.398       .  A
C784       C1101   1.413       .  A
C785       C1100   1.413       .  A
C785        C786   1.410       .  A
C785       H1105   1.083   1_554  S
C786        C787   1.411       .  A
C787        H790   1.084       .  S
H788       C2363   1.085       .  S
H789       C1101   1.083       .  S
C791        C855   1.471       .  S
C791       N2056   1.359       .  A
N792       C2055   1.359   1_455  A
N792        C793   1.361       .  A
C793        C819   1.477       .  S
N794       C2059   1.362   1_455  A
C795        C914   1.477       .  S
C795       N2058   1.362       .  A
C795        N796   1.361       .  A
Zn797       O801   1.947       .  S
Zn797       O802   2.081       .  S
Zn797       O806   2.050       .  S
Zn797       O813   2.047       .  S
Zn798       O801   1.912       .  S
Zn798       O803   2.010       .  S
Zn798       O805   1.968       .  S
Zn798       O809   1.979       .  S
Zn799       O801   1.902       .  S
Zn799       O804   1.963       .  S
Zn799       O807   1.998       .  S
Zn799       O810   1.943       .  S
Zn800       O801   1.951       .  S
Zn800       O808   2.080       .  S
Zn800       O811   2.048       .  S
Zn800       O812   2.041       .  S
O802        C814   1.283       .  A
O803        C815   1.271       .  A
O804        C816   1.265       .  A
O805        C814   1.269       .  A
O806        C816   1.277       .  A
O807        C815   1.269       .  A
O808        C817   1.282       .  A
O809        C818   1.268       .  A
O810        C817   1.267       .  A
O811        C818   1.277       .  A
O812        C819   1.280       .  A
O813        C819   1.281       .  A
C815        C947   1.455       .  S
C818        C820   1.466       .  S
C820        C821   1.400       .  A
C820        C825   1.408       .  A
C821        C822   1.400       .  A
C821        H826   1.084       .  S
C822        C891   1.466       .  S
C822        C823   1.396       .  A
C823       C1140   1.411       .  A
C823       H1143   1.084       .  S
C824       C1139   1.411       .  A
C824       C1141   1.403       .  A
C825       C1140   1.403       .  A
C825       H1144   1.084       .  S
H827       C1139   1.084       .  S
H828       C1141   1.084       .  S
C829       C2123   1.479   1_455  S
C829        C830   1.401       .  A
C829        C834   1.404       .  A
C830        C831   1.412       .  A
C830        H835   1.083       .  S
C831        C892   1.489       .  S
C831        C832   1.403       .  A
C832        C833   1.414       .  A
C832        H836   1.083       .  S
C833        C834   1.400       .  A
C834       H2101   1.084       .  S
H837       C2098   1.084       .  S
Zn838       O842   1.937       .  S
Zn838       O843   2.039       .  S
Zn838       O847   1.983       .  S
Zn838       O854   2.017       .  S
Zn839       O842   1.943       .  S
Zn839       O844   2.018       .  S
Zn839       O846   2.039       .  S
Zn839       O850   1.995       .  S
Zn840       O842   1.953       .  S
Zn840       O845   2.043       .  S
Zn840       O848   2.015       .  S
Zn840       O851   2.009       .  S
Zn841       O842   1.953       .  S
Zn841       O849   2.003       .  S
Zn841       O852   2.039       .  S
Zn841       O853   2.025       .  S
O843        C855   1.276       .  A
O844        C856   1.274       .  A
O845        C857   1.277       .  A
O846        C855   1.276       .  A
O847        C857   1.271       .  A
O848        C856   1.273       .  A
O849        C858   1.272       .  A
O850        C859   1.272       .  A
O851        C858   1.273       .  A
O852        C859   1.278       .  A
O853        C860   1.273       .  A
O854        C860   1.274       .  A
C858        C943   1.463       .  S
C859       C2093   1.479       .  S
C861       C2174   1.462   1_455  S
C861        C862   1.408       .  A
C861        C866   1.398       .  A
C862       C1179   1.403       .  A
C862       H2447   1.084       .  S
C863       C1178   1.403       .  A
C863       C1180   1.410       .  A
C864       C1179   1.410       .  A
C864        C865   1.392       .  A
C864       H1184   1.084       .  S
C865        C890   1.462       .  S
C865        C866   1.397       .  A
C866        H869   1.084       .  S
H867       C2442   1.084       .  S
H868       C1180   1.084       .  S
Zn870       O874   1.983       .  S
Zn870       O875   2.076       .  S
Zn870       O879   2.064       .  S
Zn870       O886   2.082       .  S
Zn871       O874   1.927       .  S
Zn871       O876   2.030       .  S
Zn871       O878   1.968       .  S
Zn871       O882   2.009       .  S
Zn872       O874   1.931       .  S
Zn872       O877   1.952       .  S
Zn872       O880   2.006       .  S
Zn872       O883   2.016       .  S
Zn873       O874   1.930       .  S
Zn873       O881   1.995       .  S
Zn873       O884   2.018       .  S
Zn873       O885   1.965       .  S
O875        C887   1.281       .  A
O876        C888   1.275       .  A
O877        C889   1.267       .  A
O878        C887   1.269       .  A
O879        C889   1.280       .  A
O880        C888   1.270       .  A
O881        C890   1.269       .  A
O882        C891   1.272       .  A
O883        C890   1.273       .  A
O884        C891   1.273       .  A
O885        C892   1.268       .  A
O886        C892   1.282       .  A
C887        C920   1.487       .  S
C888        C927   1.471       .  S
C889        C936   1.481       .  S
Zn893       O897   1.907       .  S
Zn893       O898   1.967       .  S
Zn893       O902   1.998       .  S
Zn893       O909   1.957       .  S
Zn894       O897   1.950       .  S
Zn894       O899   2.079       .  S
Zn894       O901   2.041       .  S
Zn894       O905   2.041       .  S
Zn895       O897   1.904       .  S
Zn895       O900   2.009       .  S
Zn895       O903   1.954       .  S
Zn895       O906   1.975       .  S
Zn896       O897   1.947       .  S
Zn896       O904   2.056       .  S
Zn896       O907   2.048       .  S
Zn896       O908   2.084       .  S
O898        C910   1.266       .  A
O899        C911   1.281       .  A
O900        C912   1.272       .  A
O901        C910   1.276       .  A
O902        C912   1.269       .  A
O903        C911   1.268       .  A
O904        C913   1.278       .  A
O905        C914   1.280       .  A
O906        C913   1.267       .  A
O907        C914   1.281       .  A
O908        C915   1.284       .  A
O909        C915   1.268       .  A
C910       C2125   1.462       .  S
C912        C945   1.455       .  S
C913        C916   1.468       .  S
C916        C917   1.404       .  A
C916        C921   1.395       .  A
C917        C918   1.404       .  A
C917        H922   1.084       .  S
C918        C919   1.417       .  A
C919        C920   1.405       .  A
C919        H923   1.083       .  S
C920        C921   1.408       .  A
C921        H924   1.084       .  S
C925        C926   1.405       .  A
C925        C930   1.409       .  A
C926        C927   1.405       .  A
C926        H931   1.084       .  S
C927        C928   1.397       .  A
C928       C1245   1.408       .  A
C928       H1248   1.084       .  S
C929       C1244   1.408       .  A
C929       C1246   1.398       .  A
C930       C1245   1.398       .  A
H932       C1244   1.084       .  S
C934        C935   1.393       .  A
C934        C939   1.404       .  A
C935        C936   1.406       .  A
C935        H940   1.084       .  S
C936        C937   1.400       .  A
C937        C938   1.413       .  A
C937        H941   1.083       .  S
C938        C939   1.403       .  A
C943        N944   1.358       .  A
C943        N948   1.357       .  A
N944        C945   1.357       .  A
C945        N946   1.354       .  A
N946        C947   1.354       .  A
C947        N948   1.356       .  A
C949        C989   1.478       .  S
C949       N2218   1.362   1_455  A
N950        C951   1.362       .  A
C951       C1095   1.479       .  S
C951       N2216   1.361   1_455  A
N952       C2215   1.361       .  A
C953       C1052   1.479       .  S
C953        N954   1.361       .  A
N954       C2213   1.362       .  A
C955        C991   1.457       .  S
C955        N956   1.355       .  A
C955        N960   1.356       .  A
N956        C957   1.355       .  A
C957       C1092   1.457       .  S
C957        N958   1.357       .  A
N958        C959   1.357       .  A
C959       C1056   1.459       .  S
C959        N960   1.356       .  A
C961       C1054   1.467       .  S
C961        C962   1.405       .  A
C961        C966   1.394       .  A
C963       C1231   1.485   1_554  S
C964        C965   1.402       .  A
C965       C1032   1.485       .  S
C965        C966   1.407       .  A
C966        H969   1.084       .  S
Zn970       O974   1.950       .  S
Zn970       O975   2.073       .  S
Zn970       O979   2.042       .  S
Zn970       O986   2.045       .  S
Zn971       O974   1.907       .  S
Zn971       O976   1.977       .  S
Zn971       O978   1.941       .  S
Zn971       O982   2.008       .  S
Zn972       O974   1.946       .  S
Zn972       O977   2.047       .  S
Zn972       O980   2.049       .  S
Zn972       O983   2.071       .  S
Zn973       O974   1.914       .  S
Zn973       O981   1.957       .  S
Zn973       O984   2.009       .  S
Zn973       O985   1.982       .  S
O975        C987   1.281       .  A
O976        C988   1.266       .  A
O977        C989   1.280       .  A
O978        C987   1.267       .  A
O979        C989   1.280       .  A
O980        C988   1.277       .  A
O981        C990   1.269       .  A
O982        C991   1.270       .  A
O983        C990   1.282       .  A
O984        C991   1.271       .  A
O985        C992   1.267       .  A
O986        C992   1.277       .  A
C987       C1179   1.479       .  S
C990       C1254   1.480       .  S
C992       C2266   1.466   1_455  S
C993        C994   1.394       .  A
C993        C998   1.405       .  A
C994        C995   1.406       .  A
C994        H999   1.084       .  S
C995       C1033   1.485       .  S
C995        C996   1.403       .  A
C997       C1130   1.486   1_554  S
C1002      C2256   1.466       .  S
C1002      C1003   1.410       .  A
C1002      C1007   1.399       .  A
C1003      C1004   1.405       .  A
C1003      H2272   1.084       .  S
C1004      C1227   1.484       .  S
C1004      C1005   1.411       .  A
C1005      C1006   1.395       .  A
C1005      H1009   1.084       .  S
C1006      C1029   1.467       .  S
C1006      C1007   1.399       .  A
C1007      H1010   1.084       .  S
H1008      C2267   1.084       .  S
Zn1011     O1015   1.924       .  S
Zn1011     O1016   2.024       .  S
Zn1011     O1020   2.010       .  S
Zn1011     O1027   1.967       .  S
Zn1012     O1015   1.924       .  S
Zn1012     O1017   2.022       .  S
Zn1012     O1019   2.002       .  S
Zn1012     O1023   1.958       .  S
Zn1013     O1015   1.921       .  S
Zn1013     O1018   2.024       .  S
Zn1013     O1021   2.002       .  S
Zn1013     O1024   1.964       .  S
Zn1014     O1015   1.987       .  S
Zn1014     O1022   2.080       .  S
Zn1014     O1025   2.074       .  S
Zn1014     O1026   2.069       .  S
O1016      C1028   1.274       .  A
O1017      C1029   1.274       .  A
O1018      C1030   1.273       .  A
O1019      C1028   1.270       .  A
O1020      C1030   1.272       .  A
O1021      C1029   1.271       .  A
O1022      C1031   1.280       .  A
O1023      C1032   1.268       .  A
O1024      C1031   1.270       .  A
O1025      C1032   1.281       .  A
O1026      C1033   1.281       .  A
O1027      C1033   1.270       .  A
C1028      C1070   1.466       .  S
C1030      C1059   1.467       .  S
C1031      C1102   1.488       .  S
Zn1034     O1038   1.910       .  S
Zn1034     O1039   1.972       .  S
Zn1034     O1043   1.968       .  S
Zn1034     O1050   2.011       .  S
Zn1035     O1038   1.947       .  S
Zn1035     O1040   2.044       .  S
Zn1035     O1042   2.047       .  S
Zn1035     O1046   2.070       .  S
Zn1036     O1038   1.946       .  S
Zn1036     O1041   2.085       .  S
Zn1036     O1044   2.055       .  S
Zn1036     O1047   2.058       .  S
Zn1037     O1038   1.906       .  S
Zn1037     O1045   1.963       .  S
Zn1037     O1048   1.950       .  S
Zn1037     O1049   2.007       .  S
O1039      C1051   1.268       .  A
O1040      C1052   1.280       .  A
O1041      C1053   1.285       .  A
O1042      C1051   1.276       .  A
O1043      C1053   1.270       .  A
O1044      C1052   1.281       .  A
O1045      C1054   1.265       .  A
O1046      C1055   1.282       .  A
O1047      C1054   1.279       .  A
O1048      C1055   1.267       .  A
O1049      C1056   1.270       .  A
O1050      C1056   1.271       .  A
C1053      C1234   1.486       .  S
C1055      C1245   1.480       .  S
C1057      C1058   1.399       .  A
C1057      C1062   1.403       .  A
C1058      C1059   1.404       .  A
C1058      H1063   1.084       .  S
C1059      C1060   1.402       .  A
C1060      C1061   1.406       .  A
C1060      H1064   1.084       .  S
C1061      C1172   1.468       .  S
C1061      C1062   1.398       .  A
C1066      C1094   1.465       .  S
C1066      C1067   1.409       .  A
C1066      C1071   1.400       .  A
C1067      C1068   1.403       .  A
C1067      H1072   1.084       .  S
C1068      C1133   1.482       .  S
C1068      C1069   1.411       .  A
C1069      C1070   1.394       .  A
C1069      H1073   1.084       .  S
C1070      C1071   1.399       .  A
C1071      H1074   1.084       .  S
Zn1075     O1079   1.908       .  S
Zn1075     O1080   2.003       .  S
Zn1075     O1084   1.970       .  S
Zn1075     O1091   1.963       .  S
Zn1076     O1079   1.902       .  S
Zn1076     O1081   1.951       .  S
Zn1076     O1083   2.009       .  S
Zn1076     O1087   1.969       .  S
Zn1077     O1079   1.948       .  S
Zn1077     O1082   2.050       .  S
Zn1077     O1085   2.083       .  S
Zn1077     O1088   2.050       .  S
Zn1078     O1079   1.941       .  S
Zn1078     O1086   2.045       .  S
Zn1078     O1089   2.047       .  S
Zn1078     O1090   2.069       .  S
O1080      C1092   1.270       .  A
O1081      C1093   1.268       .  A
O1082      C1094   1.278       .  A
O1083      C1092   1.271       .  A
O1084      C1094   1.267       .  A
O1085      C1093   1.283       .  A
O1086      C1095   1.280       .  A
O1087      C1096   1.267       .  A
O1088      C1095   1.281       .  A
O1089      C1096   1.276       .  A
O1090      C1097   1.283       .  A
O1091      C1097   1.268       .  A
C1093      C1140   1.483       .  S
C1096      C2362   1.465   1_455  S
C1097      C1149   1.482       .  S
C1098      C2360   1.465       .  S
C1098      C1099   1.398       .  A
C1098      C1103   1.393       .  A
C1099      H2052   1.085       .  S
C1100      C1176   1.471   1_554  S
C1101      C1102   1.410       .  A
C1102      C1103   1.411       .  A
C1103      H1106   1.084       .  S
H1104      C2047   1.085       .  S
C1107      C1171   1.471       .  S
C1107      N2372   1.359       .  A
N1108      C2371   1.359   1_455  A
N1108      C1109   1.361       .  A
C1109      C1135   1.477       .  S
N1110      C2375   1.362   1_455  A
C1111      C1230   1.477       .  S
C1111      N2374   1.362       .  A
C1111      N1112   1.361       .  A
Zn1113     O1117   1.947       .  S
Zn1113     O1118   2.081       .  S
Zn1113     O1122   2.050       .  S
Zn1113     O1129   2.047       .  S
Zn1114     O1117   1.912       .  S
Zn1114     O1119   2.010       .  S
Zn1114     O1121   1.968       .  S
Zn1114     O1125   1.979       .  S
Zn1115     O1117   1.902       .  S
Zn1115     O1120   1.963       .  S
Zn1115     O1123   1.998       .  S
Zn1115     O1126   1.943       .  S
Zn1116     O1117   1.951       .  S
Zn1116     O1124   2.080       .  S
Zn1116     O1127   2.048       .  S
Zn1116     O1128   2.041       .  S
O1118      C1130   1.283       .  A
O1119      C1131   1.271       .  A
O1120      C1132   1.265       .  A
O1121      C1130   1.269       .  A
O1122      C1132   1.277       .  A
O1123      C1131   1.269       .  A
O1124      C1133   1.282       .  A
O1125      C1134   1.268       .  A
O1126      C1133   1.267       .  A
O1127      C1134   1.277       .  A
O1128      C1135   1.280       .  A
O1129      C1135   1.281       .  A
C1131      C1263   1.455       .  S
C1134      C1136   1.466       .  S
C1136      C1137   1.400       .  A
C1136      C1141   1.408       .  A
C1137      C1138   1.400       .  A
C1137      H1142   1.084       .  S
C1138      C1207   1.466       .  S
C1138      C1139   1.396       .  A
C1145      C2439   1.479   1_455  S
C1145      C1146   1.401       .  A
C1145      C1150   1.404       .  A
C1146      C1147   1.412       .  A
C1146      H1151   1.083       .  S
C1147      C1208   1.489       .  S
C1147      C1148   1.403       .  A
C1148      C1149   1.414       .  A
C1148      H1152   1.083       .  S
C1149      C1150   1.400       .  A
C1150      H2417   1.084       .  S
H1153      C2414   1.084       .  S
Zn1154     O1158   1.937       .  S
Zn1154     O1159   2.039       .  S
Zn1154     O1163   1.983       .  S
Zn1154     O1170   2.017       .  S
Zn1155     O1158   1.943       .  S
Zn1155     O1160   2.018       .  S
Zn1155     O1162   2.039       .  S
Zn1155     O1166   1.995       .  S
Zn1156     O1158   1.953       .  S
Zn1156     O1161   2.043       .  S
Zn1156     O1164   2.015       .  S
Zn1156     O1167   2.009       .  S
Zn1157     O1158   1.953       .  S
Zn1157     O1165   2.003       .  S
Zn1157     O1168   2.039       .  S
Zn1157     O1169   2.025       .  S
O1159      C1171   1.276       .  A
O1160      C1172   1.274       .  A
O1161      C1173   1.277       .  A
O1162      C1171   1.276       .  A
O1163      C1173   1.271       .  A
O1164      C1172   1.273       .  A
O1165      C1174   1.272       .  A
O1166      C1175   1.272       .  A
O1167      C1174   1.273       .  A
O1168      C1175   1.278       .  A
O1169      C1176   1.273       .  A
O1170      C1176   1.274       .  A
C1174      C1259   1.463       .  S
C1175      C2409   1.479       .  S
C1177      C2490   1.462   1_455  S
C1177      C1178   1.408       .  A
C1177      C1182   1.398       .  A
C1178      H2131   1.084       .  S
C1180      C1181   1.392       .  A
C1181      C1206   1.462       .  S
C1181      C1182   1.397       .  A
C1182      H1185   1.084       .  S
H1183      C2126   1.084       .  S
Zn1186     O1190   1.983       .  S
Zn1186     O1191   2.076       .  S
Zn1186     O1195   2.064       .  S
Zn1186     O1202   2.082       .  S
Zn1187     O1190   1.927       .  S
Zn1187     O1192   2.030       .  S
Zn1187     O1194   1.968       .  S
Zn1187     O1198   2.009       .  S
Zn1188     O1190   1.931       .  S
Zn1188     O1193   1.952       .  S
Zn1188     O1196   2.006       .  S
Zn1188     O1199   2.016       .  S
Zn1189     O1190   1.930       .  S
Zn1189     O1197   1.995       .  S
Zn1189     O1200   2.018       .  S
Zn1189     O1201   1.965       .  S
O1191      C1203   1.281       .  A
O1192      C1204   1.275       .  A
O1193      C1205   1.267       .  A
O1194      C1203   1.269       .  A
O1195      C1205   1.280       .  A
O1196      C1204   1.270       .  A
O1197      C1206   1.269       .  A
O1198      C1207   1.272       .  A
O1199      C1206   1.273       .  A
O1200      C1207   1.273       .  A
O1201      C1208   1.268       .  A
O1202      C1208   1.282       .  A
C1203      C1236   1.487       .  S
C1204      C1243   1.471       .  S
C1205      C1252   1.481       .  S
Zn1209     O1213   1.907       .  S
Zn1209     O1214   1.967       .  S
Zn1209     O1218   1.998       .  S
Zn1209     O1225   1.957       .  S
Zn1210     O1213   1.950       .  S
Zn1210     O1215   2.079       .  S
Zn1210     O1217   2.041       .  S
Zn1210     O1221   2.041       .  S
Zn1211     O1213   1.904       .  S
Zn1211     O1216   2.009       .  S
Zn1211     O1219   1.954       .  S
Zn1211     O1222   1.975       .  S
Zn1212     O1213   1.947       .  S
Zn1212     O1220   2.056       .  S
Zn1212     O1223   2.048       .  S
Zn1212     O1224   2.084       .  S
O1214      C1226   1.266       .  A
O1215      C1227   1.281       .  A
O1216      C1228   1.272       .  A
O1217      C1226   1.276       .  A
O1218      C1228   1.269       .  A
O1219      C1227   1.268       .  A
O1220      C1229   1.278       .  A
O1221      C1230   1.280       .  A
O1222      C1229   1.267       .  A
O1223      C1230   1.281       .  A
O1224      C1231   1.284       .  A
O1225      C1231   1.268       .  A
C1226      C2441   1.462       .  S
C1228      C1261   1.455       .  S
C1229      C1232   1.468       .  S
C1232      C1233   1.404       .  A
C1232      C1237   1.395       .  A
C1233      C1234   1.404       .  A
C1233      H1238   1.084       .  S
C1234      C1235   1.417       .  A
C1235      C1236   1.405       .  A
C1235      H1239   1.083       .  S
C1236      C1237   1.408       .  A
C1237      H1240   1.084       .  S
C1241      C1242   1.405       .  A
C1241      C1246   1.409       .  A
C1242      C1243   1.405       .  A
C1242      H1247   1.084       .  S
C1243      C1244   1.397       .  A
C1250      C1251   1.393       .  A
C1250      C1255   1.404       .  A
C1251      C1252   1.406       .  A
C1251      H1256   1.084       .  S
C1252      C1253   1.400       .  A
C1253      C1254   1.413       .  A
C1253      H1257   1.083       .  S
C1254      C1255   1.403       .  A
C1259      N1260   1.358       .  A
C1259      N1264   1.357       .  A
N1260      C1261   1.357       .  A
C1261      N1262   1.354       .  A
N1262      C1263   1.354       .  A
C1263      N1264   1.356       .  A
C1265      C1305   1.478       .  S
C1265      N1898   1.362       .  A
N1266      C1897   1.362   1_545  A
N1266      C1267   1.362       .  A
C1267      C1411   1.479       .  S
N1268      C1901   1.361   1_545  A
C1269      C1368   1.479       .  S
C1269      N1900   1.361       .  A
C1269      N1270   1.361       .  A
C1271      C1307   1.457       .  S
C1271      N1272   1.355       .  A
C1271      N1276   1.356       .  A
N1272      C1273   1.355       .  A
C1273      C1408   1.457       .  S
C1273      N1274   1.357       .  A
N1274      C1275   1.357       .  A
C1275      C1372   1.459       .  S
C1275      N1276   1.356       .  A
C1277      C1370   1.467       .  S
C1277      C1278   1.405       .  A
C1277      C1282   1.394       .  A
C1278      C1595   1.404       .  A
C1278      H1599   1.084       .  S
C1279      C1547   1.485       .  S
C1279      C1594   1.404       .  A
C1279      C1596   1.416       .  A
C1280      C1595   1.416       .  A
C1280      C1281   1.402       .  A
C1280      H1600   1.083       .  S
C1281      C1348   1.485       .  S
C1281      C1282   1.407       .  A
C1282      H1285   1.084       .  S
H1283      C1594   1.084       .  S
H1284      C1596   1.083       .  S
Zn1286     O1290   1.950       .  S
Zn1286     O1291   2.073       .  S
Zn1286     O1295   2.042       .  S
Zn1286     O1302   2.045       .  S
Zn1287     O1290   1.907       .  S
Zn1287     O1292   1.977       .  S
Zn1287     O1294   1.941       .  S
Zn1287     O1298   2.008       .  S
Zn1288     O1290   1.946       .  S
Zn1288     O1293   2.047       .  S
Zn1288     O1296   2.049       .  S
Zn1288     O1299   2.071       .  S
Zn1289     O1290   1.914       .  S
Zn1289     O1297   1.957       .  S
Zn1289     O1300   2.009       .  S
Zn1289     O1301   1.982       .  S
O1291      C1303   1.281       .  A
O1292      C1304   1.266       .  A
O1293      C1305   1.280       .  A
O1294      C1303   1.267       .  A
O1295      C1305   1.280       .  A
O1296      C1304   1.277       .  A
O1297      C1306   1.269       .  A
O1298      C1307   1.270       .  A
O1299      C1306   1.282       .  A
O1300      C1307   1.271       .  A
O1301      C1308   1.267       .  A
O1302      C1308   1.277       .  A
C1303      C1495   1.479   1_554  S
C1304      C1941   1.468       .  S
C1306      C1570   1.480       .  S
C1309      C1936   1.468   1_545  S
C1309      C1310   1.394       .  A
C1309      C1314   1.405       .  A
C1310      C1311   1.406       .  A
C1310      H1315   1.084       .  S
C1311      C1349   1.485       .  S
C1311      C1312   1.403       .  A
C1312      C1629   1.416       .  A
C1312      H1632   1.083       .  S
C1313      C1446   1.486       .  S
C1313      C1628   1.416       .  A
C1313      C1630   1.405       .  A
C1314      C1629   1.405       .  A
C1314      H2265   1.084       .  S
H1316      C1628   1.083       .  S
H1317      C2262   1.084       .  S
C1318      C1319   1.410       .  A
C1318      C1323   1.399       .  A
C1319      C1320   1.405       .  A
C1320      C1543   1.484       .  S
C1320      C1321   1.411       .  A
C1321      C1322   1.395       .  A
C1321      H1325   1.084       .  S
C1322      C1345   1.467       .  S
C1322      C1323   1.399       .  A
C1323      H1326   1.084       .  S
Zn1327     O1331   1.924       .  S
Zn1327     O1332   2.024       .  S
Zn1327     O1336   2.010       .  S
Zn1327     O1343   1.967       .  S
Zn1328     O1331   1.924       .  S
Zn1328     O1333   2.022       .  S
Zn1328     O1335   2.002       .  S
Zn1328     O1339   1.958       .  S
Zn1329     O1331   1.921       .  S
Zn1329     O1334   2.024       .  S
Zn1329     O1337   2.002       .  S
Zn1329     O1340   1.964       .  S
Zn1330     O1331   1.987       .  S
Zn1330     O1338   2.080       .  S
Zn1330     O1341   2.074       .  S
Zn1330     O1342   2.069       .  S
O1332      C1344   1.274       .  A
O1333      C1345   1.274       .  A
O1334      C1346   1.273       .  A
O1335      C1344   1.270       .  A
O1336      C1346   1.272       .  A
O1337      C1345   1.271       .  A
O1338      C1347   1.280       .  A
O1339      C1348   1.268       .  A
O1340      C1347   1.270       .  A
O1341      C1348   1.281       .  A
O1342      C1349   1.281       .  A
O1343      C1349   1.270       .  A
C1344      C1386   1.466       .  S
C1346      C1375   1.467       .  S
C1347      C1418   1.488       .  S
Zn1350     O1354   1.910       .  S
Zn1350     O1355   1.972       .  S
Zn1350     O1359   1.968       .  S
Zn1350     O1366   2.011       .  S
Zn1351     O1354   1.947       .  S
Zn1351     O1356   2.044       .  S
Zn1351     O1358   2.047       .  S
Zn1351     O1362   2.069       .  S
Zn1352     O1354   1.946       .  S
Zn1352     O1357   2.085       .  S
Zn1352     O1360   2.055       .  S
Zn1352     O1363   2.058       .  S
Zn1353     O1354   1.906       .  S
Zn1353     O1361   1.963       .  S
Zn1353     O1364   1.950       .  S
Zn1353     O1365   2.007       .  S
O1355      C1367   1.268       .  A
O1356      C1368   1.280       .  A
O1357      C1369   1.285       .  A
O1358      C1367   1.276       .  A
O1359      C1369   1.270       .  A
O1360      C1368   1.281       .  A
O1361      C1370   1.265       .  A
O1362      C1371   1.282       .  A
O1363      C1370   1.279       .  A
O1364      C1371   1.267       .  A
O1365      C1372   1.270       .  A
O1366      C1372   1.271       .  A
C1367      C2005   1.464       .  S
C1369      C1550   1.486       .  S
C1371      C1561   1.480   1_554  S
C1373      C1999   1.464   1_545  S
C1373      C1374   1.399       .  A
C1373      C1378   1.403       .  A
C1374      C1375   1.404       .  A
C1374      H1379   1.084       .  S
C1375      C1376   1.402       .  A
C1376      C1377   1.406       .  A
C1376      H1380   1.084       .  S
C1377      C1488   1.468       .  S
C1377      C1378   1.398       .  A
C1378      H2013   1.084       .  S
H1381      C2010   1.084       .  S
C1382      C1410   1.465       .  S
C1382      C1383   1.409       .  A
C1382      C1387   1.400       .  A
C1383      C1384   1.403       .  A
C1383      H1388   1.084       .  S
C1384      C1449   1.482       .  S
C1384      C1385   1.411       .  A
C1385      C1386   1.394       .  A
C1385      H1389   1.084       .  S
C1386      C1387   1.399       .  A
C1387      H1390   1.084       .  S
Zn1391     O1395   1.908       .  S
Zn1391     O1396   2.003       .  S
Zn1391     O1400   1.970       .  S
Zn1391     O1407   1.963       .  S
Zn1392     O1395   1.902       .  S
Zn1392     O1397   1.951       .  S
Zn1392     O1399   2.009       .  S
Zn1392     O1403   1.969       .  S
Zn1393     O1395   1.948       .  S
Zn1393     O1398   2.050       .  S
Zn1393     O1401   2.083       .  S
Zn1393     O1404   2.050       .  S
Zn1394     O1395   1.941       .  S
Zn1394     O1402   2.045       .  S
Zn1394     O1405   2.047       .  S
Zn1394     O1406   2.069       .  S
O1396      C1408   1.270       .  A
O1397      C1409   1.268       .  A
O1398      C1410   1.278       .  A
O1399      C1408   1.271       .  A
O1400      C1410   1.267       .  A
O1401      C1409   1.283       .  A
O1402      C1411   1.280       .  A
O1403      C1412   1.267       .  A
O1404      C1411   1.281       .  A
O1405      C1412   1.276       .  A
O1406      C1413   1.283       .  A
O1407      C1413   1.268       .  A
C1409      C1456   1.483   1_554  S
C1413      C1465   1.482       .  S
C1414      C1415   1.398       .  A
C1414      C1419   1.393       .  A
C1415      C1732   1.398       .  A
C1416      C1492   1.471       .  S
C1416      C1731   1.398       .  A
C1416      C1733   1.413       .  A
C1417      C1732   1.413       .  A
C1417      C1418   1.410       .  A
C1417      H1737   1.083   1_554  S
C1418      C1419   1.411       .  A
C1419      H1422   1.084       .  S
H1421      C1733   1.083       .  S
C1423      C1487   1.471       .  S
C1423      N2060   1.360   1_545  A
N1424      C1425   1.361       .  A
C1425      C1451   1.477       .  S
C1425      N2058   1.362   1_545  A
N1426      C2057   1.362       .  A
C1427      C1546   1.477       .  S
C1427      N1428   1.361       .  A
N1428      C2055   1.360       .  A
Zn1429     O1433   1.947       .  S
Zn1429     O1434   2.081       .  S
Zn1429     O1438   2.050       .  S
Zn1429     O1445   2.047       .  S
Zn1430     O1433   1.912       .  S
Zn1430     O1435   2.010       .  S
Zn1430     O1437   1.968       .  S
Zn1430     O1441   1.979       .  S
Zn1431     O1433   1.902       .  S
Zn1431     O1436   1.963       .  S
Zn1431     O1439   1.998       .  S
Zn1431     O1442   1.943       .  S
Zn1432     O1433   1.951       .  S
Zn1432     O1440   2.080       .  S
Zn1432     O1443   2.048       .  S
Zn1432     O1444   2.041       .  S
O1434      C1446   1.283       .  A
O1435      C1447   1.271       .  A
O1436      C1448   1.265       .  A
O1437      C1446   1.269       .  A
O1438      C1448   1.277       .  A
O1439      C1447   1.269       .  A
O1440      C1449   1.282       .  A
O1441      C1450   1.268       .  A
O1442      C1449   1.267       .  A
O1443      C1450   1.277       .  A
O1444      C1451   1.280       .  A
O1445      C1451   1.281       .  A
C1447      C1579   1.455       .  S
C1448      C2198   1.465   1_545  S
C1450      C1452   1.466       .  S
C1452      C1453   1.400       .  A
C1452      C1457   1.408       .  A
C1453      C1454   1.400       .  A
C1453      H1458   1.084       .  S
C1454      C1523   1.466       .  S
C1454      C1455   1.396       .  A
C1455      C1772   1.411       .  A
C1455      H1775   1.084       .  S
C1456      C1771   1.411       .  A
C1456      C1773   1.403       .  A
C1457      C1772   1.403       .  A
C1457      H1776   1.084       .  S
H1459      C1771   1.084       .  S
H1460      C1773   1.084       .  S
C1461      C1462   1.401       .  A
C1461      C1466   1.404       .  A
C1462      C1463   1.412       .  A
C1462      H1467   1.083       .  S
C1463      C1524   1.489       .  S
C1463      C1464   1.403       .  A
C1464      C1465   1.414       .  A
C1464      H1468   1.083       .  S
C1465      C1466   1.400       .  A
Zn1470     O1474   1.937       .  S
Zn1470     O1475   2.039       .  S
Zn1470     O1479   1.983       .  S
Zn1470     O1486   2.017       .  S
Zn1471     O1474   1.943       .  S
Zn1471     O1476   2.018       .  S
Zn1471     O1478   2.039       .  S
Zn1471     O1482   1.995       .  S
Zn1472     O1474   1.953       .  S
Zn1472     O1477   2.043       .  S
Zn1472     O1480   2.015       .  S
Zn1472     O1483   2.009       .  S
Zn1473     O1474   1.953       .  S
Zn1473     O1481   2.003       .  S
Zn1473     O1484   2.039       .  S
Zn1473     O1485   2.025       .  S
O1475      C1487   1.276       .  A
O1476      C1488   1.274       .  A
O1477      C1489   1.277       .  A
O1478      C1487   1.276       .  A
O1479      C1489   1.271       .  A
O1480      C1488   1.273       .  A
O1481      C1490   1.272       .  A
O1482      C1491   1.272       .  A
O1483      C1490   1.273       .  A
O1484      C1491   1.278       .  A
O1485      C1492   1.273       .  A
O1486      C1492   1.274       .  A
C1489      C2189   1.478   1_545  S
C1490      C1575   1.463       .  S
C1493      C1494   1.408       .  A
C1493      C1498   1.398       .  A
C1494      C1811   1.403       .  A
C1495      C1810   1.403       .  A
C1495      C1812   1.410       .  A
C1496      C1811   1.410       .  A
C1496      C1497   1.392       .  A
C1496      H1816   1.084       .  S
C1497      C1522   1.462       .  S
C1497      C1498   1.397       .  A
C1498      H1501   1.084       .  S
H1500      C1812   1.084       .  S
Zn1502     O1506   1.983       .  S
Zn1502     O1507   2.076       .  S
Zn1502     O1511   2.064       .  S
Zn1502     O1518   2.082       .  S
Zn1503     O1506   1.927       .  S
Zn1503     O1508   2.030       .  S
Zn1503     O1510   1.968       .  S
Zn1503     O1514   2.009       .  S
Zn1504     O1506   1.931       .  S
Zn1504     O1509   1.952       .  S
Zn1504     O1512   2.006       .  S
Zn1504     O1515   2.016       .  S
Zn1505     O1506   1.930       .  S
Zn1505     O1513   1.995       .  S
Zn1505     O1516   2.018       .  S
Zn1505     O1517   1.965       .  S
O1507      C1519   1.281       .  A
O1508      C1520   1.275       .  A
O1509      C1521   1.267       .  A
O1510      C1519   1.269       .  A
O1511      C1521   1.280       .  A
O1512      C1520   1.270       .  A
O1513      C1522   1.269       .  A
O1514      C1523   1.272       .  A
O1515      C1522   1.273       .  A
O1516      C1523   1.273       .  A
O1517      C1524   1.268       .  A
O1518      C1524   1.282       .  A
C1519      C1552   1.487       .  S
C1520      C1559   1.471       .  S
C1521      C1568   1.481       .  S
Zn1525     O1529   1.907       .  S
Zn1525     O1530   1.967       .  S
Zn1525     O1534   1.998       .  S
Zn1525     O1541   1.957       .  S
Zn1526     O1529   1.950       .  S
Zn1526     O1531   2.079       .  S
Zn1526     O1533   2.041       .  S
Zn1526     O1537   2.041       .  S
Zn1527     O1529   1.904       .  S
Zn1527     O1532   2.009       .  S
Zn1527     O1535   1.954       .  S
Zn1527     O1538   1.975       .  S
Zn1528     O1529   1.947       .  S
Zn1528     O1536   2.056       .  S
Zn1528     O1539   2.048       .  S
Zn1528     O1540   2.084       .  S
O1530      C1542   1.266       .  A
O1531      C1543   1.281       .  A
O1532      C1544   1.272       .  A
O1533      C1542   1.276       .  A
O1534      C1544   1.269       .  A
O1535      C1543   1.268       .  A
O1536      C1545   1.278       .  A
O1537      C1546   1.280       .  A
O1538      C1545   1.267       .  A
O1539      C1546   1.281       .  A
O1540      C1547   1.284       .  A
O1541      C1547   1.268       .  A
C1544      C1577   1.455       .  S
C1545      C1548   1.468       .  S
C1548      C1549   1.404       .  A
C1548      C1553   1.395       .  A
C1549      C1550   1.404       .  A
C1549      H1554   1.084       .  S
C1550      C1551   1.417       .  A
C1551      C1552   1.405       .  A
C1551      H1555   1.083       .  S
C1552      C1553   1.408       .  A
C1553      H1556   1.084       .  S
C1557      C2121   1.478       .  S
C1557      C1558   1.405       .  A
C1557      C1562   1.409       .  A
C1558      C1559   1.405       .  A
C1558      H1563   1.084       .  S
C1559      C1560   1.397       .  A
C1560      C1877   1.408       .  A
C1560      H1880   1.084       .  S
C1561      C1876   1.408       .  A
C1561      C1878   1.398       .  A
C1562      C1877   1.398       .  A
C1562      H2513   1.084       .  S
H1564      C1876   1.084       .  S
H1565      C2510   1.084       .  S
C1566      C2080   1.465       .  S
C1566      C1567   1.393       .  A
C1566      C1571   1.404       .  A
C1567      C1568   1.406       .  A
C1567      H1572   1.084       .  S
C1568      C1569   1.400       .  A
C1569      C1570   1.413       .  A
C1569      H1573   1.083       .  S
C1570      C1571   1.403       .  A
C1571      H2206   1.084       .  S
H1574      C2203   1.084       .  S
C1575      N1576   1.358       .  A
C1575      N1580   1.357       .  A
N1576      C1577   1.357       .  A
C1577      N1578   1.354       .  A
N1578      C1579   1.354       .  A
C1579      N1580   1.356       .  A
C1581      C1621   1.478       .  S
C1581      N2214   1.362       .  A
N1582      C2213   1.362   1_545  A
N1582      C1583   1.362       .  A
C1583      C1727   1.479       .  S
N1584      C2217   1.361   1_545  A
C1585      C1684   1.479       .  S
C1585      N2216   1.361       .  A
C1585      N1586   1.361       .  A
C1587      C1623   1.457       .  S
C1587      N1588   1.355       .  A
C1587      N1592   1.356       .  A
N1588      C1589   1.355       .  A
C1589      C1724   1.457       .  S
C1589      N1590   1.357       .  A
N1590      C1591   1.357       .  A
C1591      C1688   1.459       .  S
C1591      N1592   1.356       .  A
C1593      C1686   1.467       .  S
C1593      C1594   1.405       .  A
C1593      C1598   1.394       .  A
C1595      C1863   1.485   1_554  S
C1596      C1597   1.402       .  A
C1597      C1664   1.485       .  S
C1597      C1598   1.407       .  A
C1598      H1601   1.084       .  S
Zn1602     O1606   1.950       .  S
Zn1602     O1607   2.073       .  S
Zn1602     O1611   2.042       .  S
Zn1602     O1618   2.045       .  S
Zn1603     O1606   1.907       .  S
Zn1603     O1608   1.977       .  S
Zn1603     O1610   1.941       .  S
Zn1603     O1614   2.008       .  S
Zn1604     O1606   1.946       .  S
Zn1604     O1609   2.047       .  S
Zn1604     O1612   2.049       .  S
Zn1604     O1615   2.071       .  S
Zn1605     O1606   1.914       .  S
Zn1605     O1613   1.957       .  S
Zn1605     O1616   2.009       .  S
Zn1605     O1617   1.982       .  S
O1607      C1619   1.281       .  A
O1608      C1620   1.266       .  A
O1609      C1621   1.280       .  A
O1610      C1619   1.267       .  A
O1611      C1621   1.280       .  A
O1612      C1620   1.277       .  A
O1613      C1622   1.269       .  A
O1614      C1623   1.270       .  A
O1615      C1622   1.282       .  A
O1616      C1623   1.271       .  A
O1617      C1624   1.267       .  A
O1618      C1624   1.277       .  A
C1619      C1811   1.479       .  S
C1620      C2257   1.468       .  S
C1622      C1886   1.480       .  S
C1625      C2252   1.468   1_545  S
C1625      C1626   1.394       .  A
C1625      C1630   1.405       .  A
C1626      C1627   1.406       .  A
C1626      H1631   1.084       .  S
C1627      C1665   1.485       .  S
C1627      C1628   1.403       .  A
C1629      C1762   1.486   1_554  S
C1630      H1949   1.084       .  S
H1633      C1946   1.084       .  S
C1634      C1635   1.410       .  A
C1634      C1639   1.399       .  A
C1635      C1636   1.405       .  A
C1636      C1859   1.484       .  S
C1636      C1637   1.411       .  A
C1637      C1638   1.395       .  A
C1637      H1641   1.084       .  S
C1638      C1661   1.467       .  S
C1638      C1639   1.399       .  A
C1639      H1642   1.084       .  S
Zn1643     O1647   1.924       .  S
Zn1643     O1648   2.024       .  S
Zn1643     O1652   2.010       .  S
Zn1643     O1659   1.967       .  S
Zn1644     O1647   1.924       .  S
Zn1644     O1649   2.022       .  S
Zn1644     O1651   2.002       .  S
Zn1644     O1655   1.958       .  S
Zn1645     O1647   1.921       .  S
Zn1645     O1650   2.024       .  S
Zn1645     O1653   2.002       .  S
Zn1645     O1656   1.964       .  S
Zn1646     O1647   1.987       .  S
Zn1646     O1654   2.080       .  S
Zn1646     O1657   2.074       .  S
Zn1646     O1658   2.069       .  S
O1648      C1660   1.274       .  A
O1649      C1661   1.274       .  A
O1650      C1662   1.273       .  A
O1651      C1660   1.270       .  A
O1652      C1662   1.272       .  A
O1653      C1661   1.271       .  A
O1654      C1663   1.280       .  A
O1655      C1664   1.268       .  A
O1656      C1663   1.270       .  A
O1657      C1664   1.281       .  A
O1658      C1665   1.281       .  A
O1659      C1665   1.270       .  A
C1660      C1702   1.466       .  S
C1662      C1691   1.467       .  S
C1663      C1734   1.488       .  S
Zn1666     O1670   1.910       .  S
Zn1666     O1671   1.972       .  S
Zn1666     O1675   1.968       .  S
Zn1666     O1682   2.011       .  S
Zn1667     O1670   1.947       .  S
Zn1667     O1672   2.044       .  S
Zn1667     O1674   2.047       .  S
Zn1667     O1678   2.070       .  S
Zn1668     O1670   1.946       .  S
Zn1668     O1673   2.085       .  S
Zn1668     O1676   2.055       .  S
Zn1668     O1679   2.058       .  S
Zn1669     O1670   1.906       .  S
Zn1669     O1677   1.963       .  S
Zn1669     O1680   1.950       .  S
Zn1669     O1681   2.007       .  S
O1671      C1683   1.268       .  A
O1672      C1684   1.280       .  A
O1673      C1685   1.285       .  A
O1674      C1683   1.276       .  A
O1675      C1685   1.270       .  A
O1676      C1684   1.281       .  A
O1677      C1686   1.265       .  A
O1678      C1687   1.282       .  A
O1679      C1686   1.279       .  A
O1680      C1687   1.267       .  A
O1681      C1688   1.270       .  A
O1682      C1688   1.271       .  A
C1683      C2321   1.464       .  S
C1685      C1866   1.486       .  S
C1687      C1877   1.480       .  S
C1689      C2315   1.464   1_545  S
C1689      C1690   1.399       .  A
C1689      C1694   1.403       .  A
C1690      C1691   1.404       .  A
C1690      H1695   1.084       .  S
C1691      C1692   1.402       .  A
C1692      C1693   1.406       .  A
C1692      H1696   1.084       .  S
C1693      C1804   1.468       .  S
C1693      C1694   1.398       .  A
C1694      H2329   1.084       .  S
H1697      C2326   1.084       .  S
C1698      C1726   1.465       .  S
C1698      C1699   1.409       .  A
C1698      C1703   1.400       .  A
C1699      C1700   1.403       .  A
C1699      H1704   1.084       .  S
C1700      C1765   1.482       .  S
C1700      C1701   1.411       .  A
C1701      C1702   1.394       .  A
C1701      H1705   1.084       .  S
C1702      C1703   1.399       .  A
C1703      H1706   1.084       .  S
Zn1707     O1711   1.908       .  S
Zn1707     O1712   2.003       .  S
Zn1707     O1716   1.970       .  S
Zn1707     O1723   1.963       .  S
Zn1708     O1711   1.902       .  S
Zn1708     O1713   1.951       .  S
Zn1708     O1715   2.009       .  S
Zn1708     O1719   1.969       .  S
Zn1709     O1711   1.948       .  S
Zn1709     O1714   2.050       .  S
Zn1709     O1717   2.083       .  S
Zn1709     O1720   2.050       .  S
Zn1710     O1711   1.941       .  S
Zn1710     O1718   2.045       .  S
Zn1710     O1721   2.047       .  S
Zn1710     O1722   2.069       .  S
O1712      C1724   1.270       .  A
O1713      C1725   1.268       .  A
O1714      C1726   1.278       .  A
O1715      C1724   1.271       .  A
O1716      C1726   1.267       .  A
O1717      C1725   1.283       .  A
O1718      C1727   1.280       .  A
O1719      C1728   1.267       .  A
O1720      C1727   1.281       .  A
O1721      C1728   1.276       .  A
O1722      C1729   1.283       .  A
O1723      C1729   1.268       .  A
C1725      C1772   1.483       .  S
C1729      C1781   1.482       .  S
C1730      C1731   1.398       .  A
C1730      C1735   1.393       .  A
C1732      C1808   1.471   1_554  S
C1733      C1734   1.410       .  A
C1734      C1735   1.411       .  A
C1735      H1738   1.084       .  S
C1739      C1803   1.471       .  S
C1739      N2376   1.360   1_545  A
N1740      C1741   1.361       .  A
C1741      C1767   1.477       .  S
C1741      N2374   1.362   1_545  A
N1742      C2373   1.362       .  A
C1743      C1862   1.477       .  S
C1743      N1744   1.361       .  A
N1744      C2371   1.360       .  A
Zn1745     O1749   1.947       .  S
Zn1745     O1750   2.081       .  S
Zn1745     O1754   2.050       .  S
Zn1745     O1761   2.047       .  S
Zn1746     O1749   1.912       .  S
Zn1746     O1751   2.010       .  S
Zn1746     O1753   1.968       .  S
Zn1746     O1757   1.979       .  S
Zn1747     O1749   1.902       .  S
Zn1747     O1752   1.963       .  S
Zn1747     O1755   1.998       .  S
Zn1747     O1758   1.943       .  S
Zn1748     O1749   1.951       .  S
Zn1748     O1756   2.080       .  S
Zn1748     O1759   2.048       .  S
Zn1748     O1760   2.041       .  S
O1750      C1762   1.283       .  A
O1751      C1763   1.271       .  A
O1752      C1764   1.265       .  A
O1753      C1762   1.269       .  A
O1754      C1764   1.277       .  A
O1755      C1763   1.269       .  A
O1756      C1765   1.282       .  A
O1757      C1766   1.268       .  A
O1758      C1765   1.267       .  A
O1759      C1766   1.277       .  A
O1760      C1767   1.280       .  A
O1761      C1767   1.281       .  A
C1763      C1895   1.455       .  S
C1764      C2514   1.465   1_545  S
C1766      C1768   1.466       .  S
C1768      C1769   1.400       .  A
C1768      C1773   1.408       .  A
C1769      C1770   1.400       .  A
C1769      H1774   1.084       .  S
C1770      C1839   1.466       .  S
C1770      C1771   1.396       .  A
C1777      C1778   1.401       .  A
C1777      C1782   1.404       .  A
C1778      C1779   1.412       .  A
C1778      H1783   1.083       .  S
C1779      C1840   1.489       .  S
C1779      C1780   1.403       .  A
C1780      C1781   1.414       .  A
C1780      H1784   1.083       .  S
C1781      C1782   1.400       .  A
Zn1786     O1790   1.937       .  S
Zn1786     O1791   2.039       .  S
Zn1786     O1795   1.983       .  S
Zn1786     O1802   2.017       .  S
Zn1787     O1790   1.943       .  S
Zn1787     O1792   2.018       .  S
Zn1787     O1794   2.039       .  S
Zn1787     O1798   1.995       .  S
Zn1788     O1790   1.953       .  S
Zn1788     O1793   2.043       .  S
Zn1788     O1796   2.015       .  S
Zn1788     O1799   2.009       .  S
Zn1789     O1790   1.953       .  S
Zn1789     O1797   2.003       .  S
Zn1789     O1800   2.039       .  S
Zn1789     O1801   2.025       .  S
O1791      C1803   1.276       .  A
O1792      C1804   1.274       .  A
O1793      C1805   1.277       .  A
O1794      C1803   1.276       .  A
O1795      C1805   1.271       .  A
O1796      C1804   1.273       .  A
O1797      C1806   1.272       .  A
O1798      C1807   1.272       .  A
O1799      C1806   1.273       .  A
O1800      C1807   1.278       .  A
O1801      C1808   1.273       .  A
O1802      C1808   1.274       .  A
C1805      C2505   1.478   1_545  S
C1806      C1891   1.463       .  S
C1809      C1810   1.408       .  A
C1809      C1814   1.398       .  A
C1812      C1813   1.392       .  A
C1813      C1838   1.462       .  S
C1813      C1814   1.397       .  A
C1814      H1817   1.084       .  S
Zn1818     O1822   1.983       .  S
Zn1818     O1823   2.076       .  S
Zn1818     O1827   2.064       .  S
Zn1818     O1834   2.082       .  S
Zn1819     O1822   1.927       .  S
Zn1819     O1824   2.030       .  S
Zn1819     O1826   1.968       .  S
Zn1819     O1830   2.009       .  S
Zn1820     O1822   1.931       .  S
Zn1820     O1825   1.952       .  S
Zn1820     O1828   2.006       .  S
Zn1820     O1831   2.016       .  S
Zn1821     O1822   1.930       .  S
Zn1821     O1829   1.995       .  S
Zn1821     O1832   2.018       .  S
Zn1821     O1833   1.965       .  S
O1823      C1835   1.281       .  A
O1824      C1836   1.275       .  A
O1825      C1837   1.267       .  A
O1826      C1835   1.269       .  A
O1827      C1837   1.280       .  A
O1828      C1836   1.270       .  A
O1829      C1838   1.269       .  A
O1830      C1839   1.272       .  A
O1831      C1838   1.273       .  A
O1832      C1839   1.273       .  A
O1833      C1840   1.268       .  A
O1834      C1840   1.282       .  A
C1835      C1868   1.487       .  S
C1836      C1875   1.471       .  S
C1837      C1884   1.481       .  S
Zn1841     O1845   1.907       .  S
Zn1841     O1846   1.967       .  S
Zn1841     O1850   1.998       .  S
Zn1841     O1857   1.957       .  S
Zn1842     O1845   1.950       .  S
Zn1842     O1847   2.079       .  S
Zn1842     O1849   2.041       .  S
Zn1842     O1853   2.041       .  S
Zn1843     O1845   1.904       .  S
Zn1843     O1848   2.009       .  S
Zn1843     O1851   1.954       .  S
Zn1843     O1854   1.975       .  S
Zn1844     O1845   1.947       .  S
Zn1844     O1852   2.056       .  S
Zn1844     O1855   2.048       .  S
Zn1844     O1856   2.084       .  S
O1846      C1858   1.266       .  A
O1847      C1859   1.281       .  A
O1848      C1860   1.272       .  A
O1849      C1858   1.276       .  A
O1850      C1860   1.269       .  A
O1851      C1859   1.268       .  A
O1852      C1861   1.278       .  A
O1853      C1862   1.280       .  A
O1854      C1861   1.267       .  A
O1855      C1862   1.281       .  A
O1856      C1863   1.284       .  A
O1857      C1863   1.268       .  A
C1860      C1893   1.455       .  S
C1861      C1864   1.468       .  S
C1864      C1865   1.404       .  A
C1864      C1869   1.395       .  A
C1865      C1866   1.404       .  A
C1865      H1870   1.084       .  S
C1866      C1867   1.417       .  A
C1867      C1868   1.405       .  A
C1867      H1871   1.083       .  S
C1868      C1869   1.408       .  A
C1869      H1872   1.084       .  S
C1873      C2437   1.478       .  S
C1873      C1874   1.405       .  A
C1873      C1878   1.409       .  A
C1874      C1875   1.405       .  A
C1874      H1879   1.084       .  S
C1875      C1876   1.397       .  A
C1878      H2197   1.084       .  S
H1881      C2194   1.084       .  S
C1882      C2396   1.465       .  S
C1882      C1883   1.393       .  A
C1882      C1887   1.404       .  A
C1883      C1884   1.406       .  A
C1883      H1888   1.084       .  S
C1884      C1885   1.400       .  A
C1885      C1886   1.413       .  A
C1885      H1889   1.083       .  S
C1886      C1887   1.403       .  A
C1887      H2522   1.084       .  S
H1890      C2519   1.084       .  S
C1891      N1892   1.358       .  A
C1891      N1896   1.357       .  A
N1892      C1893   1.357       .  A
C1893      N1894   1.354       .  A
N1894      C1895   1.354       .  A
C1895      N1896   1.356       .  A
C1897      C1937   1.478       .  S
N1898      C1899   1.362       .  A
C1899      C2043   1.479       .  S
C1901      C2000   1.479       .  S
C1901      N1902   1.361       .  A
C1903      C1939   1.457       .  S
C1903      N1904   1.355       .  A
C1903      N1908   1.356       .  A
N1904      C1905   1.355       .  A
C1905      C2040   1.457       .  S
C1905      N1906   1.357       .  A
N1906      C1907   1.357       .  A
C1907      C2004   1.459       .  S
C1907      N1908   1.356       .  A
C1909      C2002   1.467       .  S
C1909      C1910   1.405       .  A
C1909      C1914   1.394       .  A
C1910      C2227   1.404       .  A
C1910      H2231   1.084       .  S
C1911      C2179   1.485       .  S
C1911      C2226   1.404       .  A
C1911      C2228   1.416       .  A
C1912      C2227   1.416       .  A
C1912      C1913   1.402       .  A
C1912      H2232   1.083       .  S
C1913      C1980   1.485       .  S
C1913      C1914   1.407       .  A
C1914      H1917   1.084       .  S
H1915      C2226   1.084       .  S
H1916      C2228   1.083       .  S
Zn1918     O1922   1.950       .  S
Zn1918     O1923   2.073       .  S
Zn1918     O1927   2.042       .  S
Zn1918     O1934   2.045       .  S
Zn1919     O1922   1.907       .  S
Zn1919     O1924   1.977       .  S
Zn1919     O1926   1.941       .  S
Zn1919     O1930   2.008       .  S
Zn1920     O1922   1.946       .  S
Zn1920     O1925   2.047       .  S
Zn1920     O1928   2.049       .  S
Zn1920     O1931   2.071       .  S
Zn1921     O1922   1.914       .  S
Zn1921     O1929   1.957       .  S
Zn1921     O1932   2.009       .  S
Zn1921     O1933   1.982       .  S
O1923      C1935   1.281       .  A
O1924      C1936   1.266       .  A
O1925      C1937   1.280       .  A
O1926      C1935   1.267       .  A
O1927      C1937   1.280       .  A
O1928      C1936   1.277       .  A
O1929      C1938   1.269       .  A
O1930      C1939   1.270       .  A
O1931      C1938   1.282       .  A
O1932      C1939   1.271       .  A
O1933      C1940   1.267       .  A
O1934      C1940   1.277       .  A
C1935      C2127   1.479   1_554  S
C1938      C2202   1.480       .  S
C1941      C1942   1.394       .  A
C1941      C1946   1.405       .  A
C1942      C1943   1.406       .  A
C1942      H1947   1.084       .  S
C1943      C1981   1.485       .  S
C1943      C1944   1.403       .  A
C1944      C2261   1.416       .  A
C1944      H2264   1.083       .  S
C1945      C2078   1.486       .  S
C1945      C2260   1.416       .  A
C1945      C2262   1.405       .  A
C1946      C2261   1.405       .  A
H1948      C2260   1.083       .  S
C1950      C1951   1.410       .  A
C1950      C1955   1.399       .  A
C1951      C1952   1.405       .  A
C1952      C2175   1.484       .  S
C1952      C1953   1.411       .  A
C1953      C1954   1.395       .  A
C1953      H1957   1.084       .  S
C1954      C1977   1.467       .  S
C1954      C1955   1.399       .  A
C1955      H1958   1.084       .  S
Zn1959     O1963   1.924       .  S
Zn1959     O1964   2.024       .  S
Zn1959     O1968   2.010       .  S
Zn1959     O1975   1.967       .  S
Zn1960     O1963   1.924       .  S
Zn1960     O1965   2.022       .  S
Zn1960     O1967   2.002       .  S
Zn1960     O1971   1.958       .  S
Zn1961     O1963   1.921       .  S
Zn1961     O1966   2.024       .  S
Zn1961     O1969   2.002       .  S
Zn1961     O1972   1.964       .  S
Zn1962     O1963   1.987       .  S
Zn1962     O1970   2.080       .  S
Zn1962     O1973   2.074       .  S
Zn1962     O1974   2.069       .  S
O1964      C1976   1.274       .  A
O1965      C1977   1.274       .  A
O1966      C1978   1.273       .  A
O1967      C1976   1.270       .  A
O1968      C1978   1.272       .  A
O1969      C1977   1.271       .  A
O1970      C1979   1.280       .  A
O1971      C1980   1.268       .  A
O1972      C1979   1.270       .  A
O1973      C1980   1.281       .  A
O1974      C1981   1.281       .  A
O1975      C1981   1.270       .  A
C1976      C2018   1.466       .  S
C1978      C2007   1.467       .  S
C1979      C2050   1.488       .  S
Zn1982     O1986   1.910       .  S
Zn1982     O1987   1.972       .  S
Zn1982     O1991   1.968       .  S
Zn1982     O1998   2.011       .  S
Zn1983     O1986   1.947       .  S
Zn1983     O1988   2.044       .  S
Zn1983     O1990   2.047       .  S
Zn1983     O1994   2.070       .  S
Zn1984     O1986   1.946       .  S
Zn1984     O1989   2.085       .  S
Zn1984     O1992   2.055       .  S
Zn1984     O1995   2.058       .  S
Zn1985     O1986   1.906       .  S
Zn1985     O1993   1.963       .  S
Zn1985     O1996   1.950       .  S
Zn1985     O1997   2.007       .  S
O1987      C1999   1.268       .  A
O1988      C2000   1.280       .  A
O1989      C2001   1.285       .  A
O1990      C1999   1.276       .  A
O1991      C2001   1.270       .  A
O1992      C2000   1.281       .  A
O1993      C2002   1.265       .  A
O1994      C2003   1.282       .  A
O1995      C2002   1.279       .  A
O1996      C2003   1.267       .  A
O1997      C2004   1.270       .  A
O1998      C2004   1.271       .  A
C2001      C2182   1.486       .  S
C2003      C2193   1.480   1_554  S
C2005      C2006   1.399       .  A
C2005      C2010   1.403       .  A
C2006      C2007   1.404       .  A
C2006      H2011   1.085       .  S
C2007      C2008   1.402       .  A
C2008      C2009   1.406       .  A
C2008      H2012   1.084       .  S
C2009      C2120   1.468       .  S
C2009      C2010   1.398       .  A
C2014      C2042   1.465       .  S
C2014      C2015   1.409       .  A
C2014      C2019   1.400       .  A
C2015      C2016   1.403       .  A
C2015      H2020   1.084       .  S
C2016      C2081   1.482       .  S
C2016      C2017   1.411       .  A
C2017      C2018   1.394       .  A
C2017      H2021   1.084       .  S
C2018      C2019   1.399       .  A
C2019      H2022   1.084       .  S
Zn2023     O2027   1.908       .  S
Zn2023     O2028   2.003       .  S
Zn2023     O2032   1.970       .  S
Zn2023     O2039   1.963       .  S
Zn2024     O2027   1.902       .  S
Zn2024     O2029   1.951       .  S
Zn2024     O2031   2.009       .  S
Zn2024     O2035   1.969       .  S
Zn2025     O2027   1.948       .  S
Zn2025     O2030   2.050       .  S
Zn2025     O2033   2.083       .  S
Zn2025     O2036   2.050       .  S
Zn2026     O2027   1.941       .  S
Zn2026     O2034   2.045       .  S
Zn2026     O2037   2.047       .  S
Zn2026     O2038   2.069       .  S
O2028      C2040   1.270       .  A
O2029      C2041   1.268       .  A
O2030      C2042   1.278       .  A
O2031      C2040   1.271       .  A
O2032      C2042   1.267       .  A
O2033      C2041   1.283       .  A
O2034      C2043   1.280       .  A
O2035      C2044   1.267       .  A
O2036      C2043   1.281       .  A
O2037      C2044   1.276       .  A
O2038      C2045   1.283       .  A
O2039      C2045   1.268       .  A
C2041      C2088   1.483   1_554  S
C2045      C2097   1.482       .  S
C2046      C2047   1.398       .  A
C2046      C2051   1.393       .  A
C2047      C2364   1.398       .  A
C2048      C2124   1.471       .  S
C2048      C2363   1.398       .  A
C2048      C2365   1.413       .  A
C2049      C2364   1.413       .  A
C2049      C2050   1.410       .  A
C2049      H2369   1.083   1_554  S
C2050      C2051   1.411       .  A
C2051      H2054   1.084       .  S
H2053      C2365   1.083       .  S
C2055      C2119   1.471       .  S
N2056      C2057   1.361       .  A
C2057      C2083   1.477       .  S
C2059      C2178   1.477       .  S
C2059      N2060   1.361       .  A
Zn2061     O2065   1.947       .  S
Zn2061     O2066   2.081       .  S
Zn2061     O2070   2.050       .  S
Zn2061     O2077   2.047       .  S
Zn2062     O2065   1.912       .  S
Zn2062     O2067   2.010       .  S
Zn2062     O2069   1.968       .  S
Zn2062     O2073   1.979       .  S
Zn2063     O2065   1.902       .  S
Zn2063     O2068   1.963       .  S
Zn2063     O2071   1.998       .  S
Zn2063     O2074   1.943       .  S
Zn2064     O2065   1.951       .  S
Zn2064     O2072   2.080       .  S
Zn2064     O2075   2.048       .  S
Zn2064     O2076   2.041       .  S
O2066      C2078   1.283       .  A
O2067      C2079   1.271       .  A
O2068      C2080   1.265       .  A
O2069      C2078   1.269       .  A
O2070      C2080   1.277       .  A
O2071      C2079   1.269       .  A
O2072      C2081   1.282       .  A
O2073      C2082   1.268       .  A
O2074      C2081   1.267       .  A
O2075      C2082   1.277       .  A
O2076      C2083   1.280       .  A
O2077      C2083   1.281       .  A
C2079      C2211   1.455       .  S
C2082      C2084   1.466       .  S
C2084      C2085   1.400       .  A
C2084      C2089   1.408       .  A
C2085      C2086   1.400       .  A
C2085      H2090   1.084       .  S
C2086      C2155   1.466       .  S
C2086      C2087   1.396       .  A
C2087      C2404   1.411       .  A
C2087      H2407   1.084       .  S
C2088      C2403   1.411       .  A
C2088      C2405   1.403       .  A
C2089      C2404   1.403       .  A
C2089      H2408   1.084       .  S
H2091      C2403   1.084       .  S
H2092      C2405   1.084       .  S
C2093      C2094   1.401       .  A
C2093      C2098   1.404       .  A
C2094      C2095   1.412       .  A
C2094      H2099   1.083       .  S
C2095      C2156   1.489       .  S
C2095      C2096   1.403       .  A
C2096      C2097   1.414       .  A
C2096      H2100   1.083       .  S
C2097      C2098   1.400       .  A
Zn2102     O2106   1.937       .  S
Zn2102     O2107   2.039       .  S
Zn2102     O2111   1.983       .  S
Zn2102     O2118   2.017       .  S
Zn2103     O2106   1.943       .  S
Zn2103     O2108   2.018       .  S
Zn2103     O2110   2.039       .  S
Zn2103     O2114   1.995       .  S
Zn2104     O2106   1.953       .  S
Zn2104     O2109   2.043       .  S
Zn2104     O2112   2.015       .  S
Zn2104     O2115   2.009       .  S
Zn2105     O2106   1.953       .  S
Zn2105     O2113   2.003       .  S
Zn2105     O2116   2.039       .  S
Zn2105     O2117   2.025       .  S
O2107      C2119   1.276       .  A
O2108      C2120   1.274       .  A
O2109      C2121   1.277       .  A
O2110      C2119   1.276       .  A
O2111      C2121   1.271       .  A
O2112      C2120   1.273       .  A
O2113      C2122   1.272       .  A
O2114      C2123   1.272       .  A
O2115      C2122   1.273       .  A
O2116      C2123   1.278       .  A
O2117      C2124   1.273       .  A
O2118      C2124   1.274       .  A
C2122      C2207   1.463       .  S
C2125      C2126   1.408       .  A
C2125      C2130   1.398       .  A
C2126      C2443   1.403       .  A
C2127      C2442   1.403       .  A
C2127      C2444   1.410       .  A
C2128      C2443   1.410       .  A
C2128      C2129   1.392       .  A
C2128      H2448   1.084       .  S
C2129      C2154   1.462       .  S
C2129      C2130   1.397       .  A
C2130      H2133   1.084       .  S
H2132      C2444   1.084       .  S
Zn2134     O2138   1.983       .  S
Zn2134     O2139   2.076       .  S
Zn2134     O2143   2.064       .  S
Zn2134     O2150   2.082       .  S
Zn2135     O2138   1.927       .  S
Zn2135     O2140   2.030       .  S
Zn2135     O2142   1.968       .  S
Zn2135     O2146   2.009       .  S
Zn2136     O2138   1.931       .  S
Zn2136     O2141   1.952       .  S
Zn2136     O2144   2.006       .  S
Zn2136     O2147   2.016       .  S
Zn2137     O2138   1.930       .  S
Zn2137     O2145   1.995       .  S
Zn2137     O2148   2.018       .  S
Zn2137     O2149   1.965       .  S
O2139      C2151   1.281       .  A
O2140      C2152   1.275       .  A
O2141      C2153   1.267       .  A
O2142      C2151   1.269       .  A
O2143      C2153   1.280       .  A
O2144      C2152   1.270       .  A
O2145      C2154   1.269       .  A
O2146      C2155   1.272       .  A
O2147      C2154   1.273       .  A
O2148      C2155   1.273       .  A
O2149      C2156   1.268       .  A
O2150      C2156   1.282       .  A
C2151      C2184   1.487       .  S
C2152      C2191   1.471       .  S
C2153      C2200   1.481       .  S
Zn2157     O2161   1.907       .  S
Zn2157     O2162   1.967       .  S
Zn2157     O2166   1.998       .  S
Zn2157     O2173   1.957       .  S
Zn2158     O2161   1.950       .  S
Zn2158     O2163   2.079       .  S
Zn2158     O2165   2.041       .  S
Zn2158     O2169   2.041       .  S
Zn2159     O2161   1.904       .  S
Zn2159     O2164   2.009       .  S
Zn2159     O2167   1.954       .  S
Zn2159     O2170   1.975       .  S
Zn2160     O2161   1.947       .  S
Zn2160     O2168   2.056       .  S
Zn2160     O2171   2.048       .  S
Zn2160     O2172   2.084       .  S
O2162      C2174   1.266       .  A
O2163      C2175   1.281       .  A
O2164      C2176   1.272       .  A
O2165      C2174   1.276       .  A
O2166      C2176   1.269       .  A
O2167      C2175   1.268       .  A
O2168      C2177   1.278       .  A
O2169      C2178   1.280       .  A
O2170      C2177   1.267       .  A
O2171      C2178   1.281       .  A
O2172      C2179   1.284       .  A
O2173      C2179   1.268       .  A
C2176      C2209   1.455       .  S
C2177      C2180   1.468       .  S
C2180      C2181   1.404       .  A
C2180      C2185   1.395       .  A
C2181      C2182   1.404       .  A
C2181      H2186   1.084       .  S
C2182      C2183   1.417       .  A
C2183      C2184   1.405       .  A
C2183      H2187   1.083       .  S
C2184      C2185   1.408       .  A
C2185      H2188   1.084       .  S
C2189      C2190   1.405       .  A
C2189      C2194   1.409       .  A
C2190      C2191   1.405       .  A
C2190      H2195   1.084       .  S
C2191      C2192   1.397       .  A
C2192      C2509   1.408       .  A
C2192      H2512   1.084       .  S
C2193      C2508   1.408       .  A
C2193      C2510   1.398       .  A
C2194      C2509   1.398       .  A
H2196      C2508   1.084       .  S
C2198      C2199   1.393       .  A
C2198      C2203   1.404       .  A
C2199      C2200   1.406       .  A
C2199      H2204   1.084       .  S
C2200      C2201   1.400       .  A
C2201      C2202   1.413       .  A
C2201      H2205   1.083       .  S
C2202      C2203   1.403       .  A
C2207      N2208   1.358       .  A
C2207      N2212   1.357       .  A
N2208      C2209   1.357       .  A
C2209      N2210   1.354       .  A
N2210      C2211   1.354       .  A
C2211      N2212   1.356       .  A
C2213      C2253   1.478       .  S
N2214      C2215   1.362       .  A
C2215      C2359   1.479       .  S
C2217      C2316   1.479       .  S
C2217      N2218   1.361       .  A
C2219      C2255   1.457       .  S
C2219      N2220   1.355       .  A
C2219      N2224   1.356       .  A
N2220      C2221   1.355       .  A
C2221      C2356   1.457       .  S
C2221      N2222   1.357       .  A
N2222      C2223   1.357       .  A
C2223      C2320   1.459       .  S
C2223      N2224   1.356       .  A
C2225      C2318   1.467       .  S
C2225      C2226   1.405       .  A
C2225      C2230   1.394       .  A
C2227      C2495   1.485   1_554  S
C2228      C2229   1.402       .  A
C2229      C2296   1.485       .  S
C2229      C2230   1.407       .  A
C2230      H2233   1.084       .  S
Zn2234     O2238   1.950       .  S
Zn2234     O2239   2.073       .  S
Zn2234     O2243   2.042       .  S
Zn2234     O2250   2.045       .  S
Zn2235     O2238   1.907       .  S
Zn2235     O2240   1.977       .  S
Zn2235     O2242   1.941       .  S
Zn2235     O2246   2.008       .  S
Zn2236     O2238   1.946       .  S
Zn2236     O2241   2.047       .  S
Zn2236     O2244   2.049       .  S
Zn2236     O2247   2.071       .  S
Zn2237     O2238   1.914       .  S
Zn2237     O2245   1.957       .  S
Zn2237     O2248   2.009       .  S
Zn2237     O2249   1.982       .  S
O2239      C2251   1.281       .  A
O2240      C2252   1.266       .  A
O2241      C2253   1.280       .  A
O2242      C2251   1.267       .  A
O2243      C2253   1.280       .  A
O2244      C2252   1.277       .  A
O2245      C2254   1.269       .  A
O2246      C2255   1.270       .  A
O2247      C2254   1.282       .  A
O2248      C2255   1.271       .  A
O2249      C2256   1.267       .  A
O2250      C2256   1.277       .  A
C2251      C2443   1.479       .  S
C2254      C2518   1.480       .  S
C2257      C2258   1.394       .  A
C2257      C2262   1.405       .  A
C2258      C2259   1.406       .  A
C2258      H2263   1.084       .  S
C2259      C2297   1.485       .  S
C2259      C2260   1.403       .  A
C2261      C2394   1.486   1_554  S
C2266      C2267   1.410       .  A
C2266      C2271   1.399       .  A
C2267      C2268   1.405       .  A
C2268      C2491   1.484       .  S
C2268      C2269   1.411       .  A
C2269      C2270   1.395       .  A
C2269      H2273   1.084       .  S
C2270      C2293   1.467       .  S
C2270      C2271   1.399       .  A
C2271      H2274   1.084       .  S
Zn2275     O2279   1.924       .  S
Zn2275     O2280   2.024       .  S
Zn2275     O2284   2.010       .  S
Zn2275     O2291   1.967       .  S
Zn2276     O2279   1.924       .  S
Zn2276     O2281   2.022       .  S
Zn2276     O2283   2.002       .  S
Zn2276     O2287   1.958       .  S
Zn2277     O2279   1.921       .  S
Zn2277     O2282   2.024       .  S
Zn2277     O2285   2.002       .  S
Zn2277     O2288   1.964       .  S
Zn2278     O2279   1.987       .  S
Zn2278     O2286   2.080       .  S
Zn2278     O2289   2.074       .  S
Zn2278     O2290   2.069       .  S
O2280      C2292   1.274       .  A
O2281      C2293   1.274       .  A
O2282      C2294   1.273       .  A
O2283      C2292   1.270       .  A
O2284      C2294   1.272       .  A
O2285      C2293   1.271       .  A
O2286      C2295   1.280       .  A
O2287      C2296   1.268       .  A
O2288      C2295   1.270       .  A
O2289      C2296   1.281       .  A
O2290      C2297   1.281       .  A
O2291      C2297   1.270       .  A
C2292      C2334   1.466       .  S
C2294      C2323   1.467       .  S
C2295      C2366   1.488       .  S
Zn2298     O2302   1.910       .  S
Zn2298     O2303   1.972       .  S
Zn2298     O2307   1.968       .  S
Zn2298     O2314   2.011       .  S
Zn2299     O2302   1.947       .  S
Zn2299     O2304   2.044       .  S
Zn2299     O2306   2.047       .  S
Zn2299     O2310   2.070       .  S
Zn2300     O2302   1.946       .  S
Zn2300     O2305   2.085       .  S
Zn2300     O2308   2.055       .  S
Zn2300     O2311   2.058       .  S
Zn2301     O2302   1.906       .  S
Zn2301     O2309   1.963       .  S
Zn2301     O2312   1.950       .  S
Zn2301     O2313   2.007       .  S
O2303      C2315   1.268       .  A
O2304      C2316   1.280       .  A
O2305      C2317   1.285       .  A
O2306      C2315   1.276       .  A
O2307      C2317   1.270       .  A
O2308      C2316   1.281       .  A
O2309      C2318   1.265       .  A
O2310      C2319   1.282       .  A
O2311      C2318   1.279       .  A
O2312      C2319   1.267       .  A
O2313      C2320   1.270       .  A
O2314      C2320   1.271       .  A
C2317      C2498   1.486       .  S
C2319      C2509   1.480       .  S
C2321      C2322   1.399       .  A
C2321      C2326   1.403       .  A
C2322      C2323   1.404       .  A
C2322      H2327   1.084       .  S
C2323      C2324   1.402       .  A
C2324      C2325   1.406       .  A
C2324      H2328   1.084       .  S
C2325      C2436   1.468       .  S
C2325      C2326   1.398       .  A
C2330      C2358   1.465       .  S
C2330      C2331   1.409       .  A
C2330      C2335   1.400       .  A
C2331      C2332   1.403       .  A
C2331      H2336   1.084       .  S
C2332      C2397   1.482       .  S
C2332      C2333   1.411       .  A
C2333      C2334   1.394       .  A
C2333      H2337   1.084       .  S
C2334      C2335   1.399       .  A
C2335      H2338   1.084       .  S
Zn2339     O2343   1.908       .  S
Zn2339     O2344   2.003       .  S
Zn2339     O2348   1.970       .  S
Zn2339     O2355   1.963       .  S
Zn2340     O2343   1.902       .  S
Zn2340     O2345   1.951       .  S
Zn2340     O2347   2.009       .  S
Zn2340     O2351   1.969       .  S
Zn2341     O2343   1.948       .  S
Zn2341     O2346   2.050       .  S
Zn2341     O2349   2.083       .  S
Zn2341     O2352   2.050       .  S
Zn2342     O2343   1.941       .  S
Zn2342     O2350   2.045       .  S
Zn2342     O2353   2.047       .  S
Zn2342     O2354   2.069       .  S
O2344      C2356   1.270       .  A
O2345      C2357   1.268       .  A
O2346      C2358   1.278       .  A
O2347      C2356   1.271       .  A
O2348      C2358   1.267       .  A
O2349      C2357   1.283       .  A
O2350      C2359   1.280       .  A
O2351      C2360   1.267       .  A
O2352      C2359   1.281       .  A
O2353      C2360   1.276       .  A
O2354      C2361   1.283       .  A
O2355      C2361   1.268       .  A
C2357      C2404   1.483       .  S
C2361      C2413   1.482       .  S
C2362      C2363   1.398       .  A
C2362      C2367   1.393       .  A
C2364      C2440   1.471   1_554  S
C2365      C2366   1.410       .  A
C2366      C2367   1.411       .  A
C2367      H2370   1.084       .  S
C2371      C2435   1.471       .  S
N2372      C2373   1.361       .  A
C2373      C2399   1.477       .  S
C2375      C2494   1.477       .  S
C2375      N2376   1.361       .  A
Zn2377     O2381   1.947       .  S
Zn2377     O2382   2.081       .  S
Zn2377     O2386   2.050       .  S
Zn2377     O2393   2.047       .  S
Zn2378     O2381   1.912       .  S
Zn2378     O2383   2.010       .  S
Zn2378     O2385   1.968       .  S
Zn2378     O2389   1.979       .  S
Zn2379     O2381   1.902       .  S
Zn2379     O2384   1.963       .  S
Zn2379     O2387   1.998       .  S
Zn2379     O2390   1.943       .  S
Zn2380     O2381   1.951       .  S
Zn2380     O2388   2.080       .  S
Zn2380     O2391   2.048       .  S
Zn2380     O2392   2.041       .  S
O2382      C2394   1.283       .  A
O2383      C2395   1.271       .  A
O2384      C2396   1.265       .  A
O2385      C2394   1.269       .  A
O2386      C2396   1.277       .  A
O2387      C2395   1.269       .  A
O2388      C2397   1.282       .  A
O2389      C2398   1.268       .  A
O2390      C2397   1.267       .  A
O2391      C2398   1.277       .  A
O2392      C2399   1.280       .  A
O2393      C2399   1.281       .  A
C2395      C2527   1.455       .  S
C2398      C2400   1.466       .  S
C2400      C2401   1.400       .  A
C2400      C2405   1.408       .  A
C2401      C2402   1.400       .  A
C2401      H2406   1.084       .  S
C2402      C2471   1.466       .  S
C2402      C2403   1.396       .  A
C2409      C2410   1.401       .  A
C2409      C2414   1.404       .  A
C2410      C2411   1.412       .  A
C2410      H2415   1.083       .  S
C2411      C2472   1.489       .  S
C2411      C2412   1.403       .  A
C2412      C2413   1.414       .  A
C2412      H2416   1.083       .  S
C2413      C2414   1.400       .  A
Zn2418     O2422   1.937       .  S
Zn2418     O2423   2.039       .  S
Zn2418     O2427   1.983       .  S
Zn2418     O2434   2.017       .  S
Zn2419     O2422   1.943       .  S
Zn2419     O2424   2.018       .  S
Zn2419     O2426   2.039       .  S
Zn2419     O2430   1.995       .  S
Zn2420     O2422   1.953       .  S
Zn2420     O2425   2.043       .  S
Zn2420     O2428   2.015       .  S
Zn2420     O2431   2.009       .  S
Zn2421     O2422   1.953       .  S
Zn2421     O2429   2.003       .  S
Zn2421     O2432   2.039       .  S
Zn2421     O2433   2.025       .  S
O2423      C2435   1.276       .  A
O2424      C2436   1.274       .  A
O2425      C2437   1.277       .  A
O2426      C2435   1.276       .  A
O2427      C2437   1.271       .  A
O2428      C2436   1.273       .  A
O2429      C2438   1.272       .  A
O2430      C2439   1.272       .  A
O2431      C2438   1.273       .  A
O2432      C2439   1.278       .  A
O2433      C2440   1.273       .  A
O2434      C2440   1.274       .  A
C2438      C2523   1.463       .  S
C2441      C2442   1.408       .  A
C2441      C2446   1.398       .  A
C2444      C2445   1.392       .  A
C2445      C2470   1.462       .  S
C2445      C2446   1.397       .  A
C2446      H2449   1.084       .  S
Zn2450     O2454   1.983       .  S
Zn2450     O2455   2.076       .  S
Zn2450     O2459   2.064       .  S
Zn2450     O2466   2.082       .  S
Zn2451     O2454   1.927       .  S
Zn2451     O2456   2.030       .  S
Zn2451     O2458   1.968       .  S
Zn2451     O2462   2.009       .  S
Zn2452     O2454   1.931       .  S
Zn2452     O2457   1.952       .  S
Zn2452     O2460   2.006       .  S
Zn2452     O2463   2.016       .  S
Zn2453     O2454   1.930       .  S
Zn2453     O2461   1.995       .  S
Zn2453     O2464   2.018       .  S
Zn2453     O2465   1.965       .  S
O2455      C2467   1.281       .  A
O2456      C2468   1.275       .  A
O2457      C2469   1.267       .  A
O2458      C2467   1.269       .  A
O2459      C2469   1.280       .  A
O2460      C2468   1.270       .  A
O2461      C2470   1.269       .  A
O2462      C2471   1.272       .  A
O2463      C2470   1.273       .  A
O2464      C2471   1.273       .  A
O2465      C2472   1.268       .  A
O2466      C2472   1.282       .  A
C2467      C2500   1.487       .  S
C2468      C2507   1.471       .  S
C2469      C2516   1.481       .  S
Zn2473     O2477   1.907       .  S
Zn2473     O2478   1.967       .  S
Zn2473     O2482   1.998       .  S
Zn2473     O2489   1.957       .  S
Zn2474     O2477   1.950       .  S
Zn2474     O2479   2.079       .  S
Zn2474     O2481   2.041       .  S
Zn2474     O2485   2.041       .  S
Zn2475     O2477   1.904       .  S
Zn2475     O2480   2.009       .  S
Zn2475     O2483   1.954       .  S
Zn2475     O2486   1.975       .  S
Zn2476     O2477   1.947       .  S
Zn2476     O2484   2.056       .  S
Zn2476     O2487   2.048       .  S
Zn2476     O2488   2.084       .  S
O2478      C2490   1.266       .  A
O2479      C2491   1.281       .  A
O2480      C2492   1.272       .  A
O2481      C2490   1.276       .  A
O2482      C2492   1.269       .  A
O2483      C2491   1.268       .  A
O2484      C2493   1.278       .  A
O2485      C2494   1.280       .  A
O2486      C2493   1.267       .  A
O2487      C2494   1.281       .  A
O2488      C2495   1.284       .  A
O2489      C2495   1.268       .  A
C2492      C2525   1.455       .  S
C2493      C2496   1.468       .  S
C2496      C2497   1.404       .  A
C2496      C2501   1.395       .  A
C2497      C2498   1.404       .  A
C2497      H2502   1.084       .  S
C2498      C2499   1.417       .  A
C2499      C2500   1.405       .  A
C2499      H2503   1.083       .  S
C2500      C2501   1.408       .  A
C2501      H2504   1.084       .  S
C2505      C2506   1.405       .  A
C2505      C2510   1.409       .  A
C2506      C2507   1.405       .  A
C2506      H2511   1.084       .  S
C2507      C2508   1.397       .  A
C2514      C2515   1.393       .  A
C2514      C2519   1.404       .  A
C2515      C2516   1.406       .  A
C2515      H2520   1.084       .  S
C2516      C2517   1.400       .  A
C2517      C2518   1.413       .  A
C2517      H2521   1.083       .  S
C2518      C2519   1.403       .  A
C2523      N2524   1.358       .  A
C2523      N2528   1.357       .  A
N2524      C2525   1.357       .  A
C2525      N2526   1.354       .  A
N2526      C2527   1.354       .  A
C2527      N2528   1.356       .  A
