geometry optimzed in LAMMPS
_audit_creation_date              2020-12-01 
_audit_creation_method            'lammps2cif' 
_symmetry_space_group_name_H-M    'P1' 
_symmetry_Int_Tables_number       1 
_symmetry_cell_setting            triclinic 
loop_ 
_symmetry_equiv_pos_as_xyz 
  x,y,z 
_cell_length_a                    36.72812042 
_cell_length_b                    36.46945380734184 
_cell_length_c                    54.81925153232092 
_cell_angle_alpha                 89.71840517445963 
_cell_angle_beta                  91.49910822861634 
_cell_angle_gamma                 119.81309098848509 
loop_ 
_atom_site_label 
_atom_site_type_symbol 
_atom_site_fract_x 
_atom_site_fract_y 
_atom_site_fract_z 
_atom_site_charge 
O1          O  0.30682697  0.06572790  0.97419721    -0.73400
O2          O  0.26161054  0.47771342  0.02494030    -0.74400
O3          O  0.25426588  0.47610501  0.97310425    -0.63000
O4          O  0.31152544  0.06672568  0.02619173    -0.71400
O5          O  0.25580931  0.07531025  0.02487718    -0.71000
O6          O  0.19678590  0.48057541  0.97770886    -0.62200
O7          O  0.20646656  0.48618352  0.02949252    -0.74700
O8          O  0.24856664  0.06982580  0.97297287    -0.73500
Cu9        Cu  0.28554010  0.02137872  0.99947524     1.04600
Cu10       Cu  0.22492058  0.52823629  0.00127060     1.04300
C11         C  0.28532514  0.08143029  0.96515731     0.92800
C12         C  0.22796799  0.46856488  0.03586738     0.91900
C13         C  0.21560295  0.46343144  0.96768549     0.84100
C14         C  0.29197410  0.08521382  0.03378084     0.90300
C15         C  0.09668987  0.29423647  0.80995079     0.79700
N16         N  0.12147409  0.31481746  0.82973891    -0.78600
C17         C  0.10434476  0.31565255  0.85131162     0.82200
N18         N  0.06170009  0.29516434  0.85300959    -0.78500
C19         C  0.03655864  0.27463562  0.83328832     0.82300
N20         N  0.05428753  0.27454122  0.81188672    -0.80200
C21         C  0.42418420  0.22376883  0.81410015     0.79700
N22         N  0.40500243  0.21129647  0.83589535    -0.78600
C23         C  0.42808121  0.21937257  0.85707068     0.82200
N24         N  0.47085555  0.24051310  0.85625351    -0.78500
C25         C  0.49034100  0.25302268  0.83458289     0.82300
N26         N  0.46681311  0.24428973  0.81367704    -0.80200
O27         O  0.45198853  0.24032069  0.30648389    -0.73400
O28         O  0.04061717  0.27995280  0.35839718    -0.74400
O29         O  0.04104147  0.27725449  0.30654405    -0.63000
O30         O  0.45228894  0.24082123  0.35845374    -0.71400
O31         O  0.44387672  0.17636039  0.35600518    -0.71000
O32         O  0.03779016  0.21519559  0.31071898    -0.62200
O33         O  0.03188587  0.21556702  0.36258325    -0.74700
O34         O  0.44910641  0.17822565  0.30420270    -0.73500
Cu35       Cu  0.99664573  0.26179262  0.33235276     1.04600
Cu36       Cu  0.49046747  0.19408937  0.33333203     1.04300
C37         C  0.43690405  0.20384145  0.29670129     0.92800
C38         C  0.04924909  0.25433378  0.36950116     0.91900
C39         C  0.05403049  0.25163145  0.30105834     0.84100
C40         C  0.43432742  0.20224987  0.36538011     0.90300
C41         C  0.29557844  0.22144778  0.14560880     0.79700
N42         N  0.30835648  0.21157693  0.16693748    -0.78600
C43         C  0.29987136  0.22306713  0.18877713     0.82200
N44         N  0.27796377  0.24428764  0.18907461    -0.78500
C45         C  0.26524010  0.25439334  0.16785457     0.82300
N46         N  0.27437484  0.24306856  0.14635774    -0.80200
C47         C  0.19915340  0.30058655  0.18589511     0.79700
N48         N  0.22117250  0.27948860  0.18712945    -0.78600
C49         C  0.24232103  0.27809468  0.16749167     0.82200
N50         N  0.24143142  0.29795060  0.14670723    -0.78500
C51         C  0.22019376  0.31955164  0.14518705     0.82300
N52         N  0.19896465  0.32062178  0.16486078    -0.80200
O53         O  0.25181832  0.28293305  0.64068429    -0.73400
O54         O  0.29619265  0.23774109  0.69199502    -0.74400
O55         O  0.28764264  0.22928938  0.64034735    -0.63000
O56         O  0.25814758  0.28873450  0.69274289    -0.71400
O57         O  0.19387527  0.23320572  0.69226581    -0.71000
O58         O  0.22638018  0.17172663  0.64647217    -0.62200
O59         O  0.23272314  0.18331432  0.69807814    -0.74700
O60         O  0.18984879  0.22423026  0.64052265    -0.73500
Cu61       Cu  0.27565632  0.26168949  0.66627856     1.04600
Cu62       Cu  0.20848541  0.20112079  0.66937406     1.04300
C63         C  0.21452659  0.26096832  0.63197441     0.92800
C64         C  0.27193436  0.20471109  0.70385319     0.91900
C65         C  0.26135757  0.19026653  0.63578418     0.84100
C66         C  0.22063925  0.26957904  0.70064350     0.90300
C67         C  0.28514232  0.07853266  0.51797579     0.79700
N68         N  0.26170722  0.03562641  0.51956689    -0.78600
C69         C  0.25442275  0.01084876  0.49952514     0.82200
N70         N  0.27092225  0.02910483  0.47794448    -0.78500
C71         C  0.29485735  0.07173569  0.47612952     0.82300
N72         N  0.30168272  0.09621757  0.49620544    -0.80200
C73         C  0.20407818  0.40120627  0.52315623     0.79700
N74         N  0.22525571  0.44422984  0.52224780    -0.78600
C75         C  0.22925836  0.46444231  0.50084403     0.82200
N76         N  0.21184149  0.44142694  0.48018300    -0.78500
C77         C  0.18991827  0.39848111  0.48062089     0.82300
N78         N  0.18624609  0.37840121  0.50223008    -0.80200
C79         C  0.26989200  0.16542308  0.61791850    -0.05700
C80         C  0.25036180  0.12132858  0.62061202    -0.05600
C81         C  0.25237997  0.09592685  0.60239710    -0.23800
C82         C  0.27341242  0.11404304  0.58088406     0.18400
C83         C  0.29459790  0.15849509  0.57828576     0.15600
C84         C  0.29325050  0.18407560  0.59702099    -0.18800
C85         C  0.31512610  0.17632984  0.55654340    -0.20700
C86         C  0.31315678  0.15037042  0.53724861    -0.13200
C87         C  0.29084682  0.10602021  0.53933711     0.03400
C88         C  0.27202528  0.08821712  0.56157199    -0.25400
H89         H  0.23248205  0.10627915  0.63666213     0.08500
H90         H  0.23619300  0.06197234  0.60477982     0.12100
H91         H  0.30814520  0.21799970  0.59471204     0.12100
H92         H  0.33167187  0.21028610  0.55418277     0.11800
H93         H  0.32830633  0.16514379  0.52044338     0.12400
H94         H  0.25490736  0.05418020  0.56360718     0.14300
C95         C  0.20400227  0.38002180  0.54645052    -0.05700
C96         C  0.22781978  0.40473956  0.56668227    -0.05600
C97         C  0.23223020  0.38593140  0.58788556    -0.23800
C98         C  0.21272337  0.34191361  0.58948154     0.18400
C99         C  0.18702089  0.31635846  0.56988278     0.15600
C100        C  0.18281616  0.33557541  0.54841511    -0.18800
C101        C  0.16711353  0.27212936  0.57193291    -0.20700
C102        C  0.17405794  0.25361151  0.59275572    -0.13200
C103        C  0.20129766  0.27906575  0.61169376     0.03400
C104        C  0.21971662  0.32319321  0.61010745    -0.25400
H105        H  0.24429664  0.43891803  0.56596061     0.08500
H106        H  0.25175135  0.40592404  0.60285995     0.12100
H107        H  0.16406818  0.31599349  0.53311333     0.12100
H108        H  0.14706380  0.25191225  0.55719335     0.11800
H109        H  0.15969334  0.21954462  0.59356314     0.12400
H110        H  0.24051387  0.34311927  0.62474031     0.14300
C111        C  0.40407732  0.18676693  0.38530898    -0.05700
C112        C  0.40708109  0.21364406  0.40445905    -0.05600
C113        C  0.38453571  0.19680497  0.42577438    -0.23800
C114        C  0.35876323  0.15288137  0.42818753     0.18400
C115        C  0.35406538  0.12600435  0.40844401     0.15600
C116        C  0.37633659  0.14310461  0.38715320    -0.18800
C117        C  0.32859700  0.08221142  0.41062867    -0.20700
C118        C  0.30884786  0.06489426  0.43246784    -0.13200
C119        C  0.31406039  0.09099561  0.45259787     0.03400
C120        C  0.33865102  0.13521363  0.45016671    -0.25400
H121        H  0.42859911  0.24733687  0.40352042     0.08500
H122        H  0.38843434  0.21796187  0.44067984     0.12100
H123        H  0.37366223  0.12209089  0.37241844     0.12100
H124        H  0.32466061  0.06123824  0.39560162     0.11800
H125        H  0.29003583  0.03083782  0.43366188     0.12400
H126        H  0.34289558  0.15582886  0.46545274     0.14300
C127        C  0.31636227  0.21475671  0.21201255    -0.05700
C128        C  0.31121105  0.23072052  0.23417105    -0.05600
C129        C  0.33056919  0.22767381  0.25571637    -0.23800
C130        C  0.35555507  0.20860284  0.25562231     0.18400
C131        C  0.35920632  0.19016367  0.23390115     0.15600
C132        C  0.33946090  0.19323059  0.21219988    -0.18800
C133        C  0.38411309  0.17075316  0.23413268    -0.20700
C134        C  0.40728925  0.17214404  0.25524924    -0.13200
C135        C  0.40591839  0.19305480  0.27633836     0.03400
C136        C  0.37870216  0.20974542  0.27662162    -0.25400
H137        H  0.29330936  0.24695171  0.23479440     0.08500
H138        H  0.32713786  0.24155725  0.27231756     0.12100
H139        H  0.34341958  0.18027161  0.19537933     0.12100
H140        H  0.38705064  0.15609355  0.21772561     0.11800
H141        H  0.42819096  0.15923478  0.25462637     0.12400
H142        H  0.37720885  0.22563431  0.29292381     0.14300
C143        C  0.08763033  0.26277161  0.28335051    -0.05700
C144        C  0.11181691  0.24264804  0.28498024    -0.05600
C145        C  0.14026019  0.24819216  0.26702209    -0.23800
C146        C  0.14470923  0.27352232  0.24680617     0.18400
C147        C  0.12151957  0.29496587  0.24522450     0.15600
C148        C  0.09346824  0.28994289  0.26371750    -0.18800
C149        C  0.12573945  0.31979875  0.22473635    -0.20700
C150        C  0.15160742  0.32231149  0.20573428    -0.13200
C151        C  0.17408841  0.30030666  0.20687240     0.03400
C152        C  0.17098555  0.27658907  0.22781292    -0.25400
H153        H  0.10813630  0.22182101  0.30003206     0.08500
H154        H  0.15789321  0.23167392  0.26861120     0.12100
H155        H  0.07476269  0.30534885  0.26220153     0.12100
H156        H  0.10833963  0.33654726  0.22314810     0.11800
H157        H  0.15344387  0.34105055  0.18994297     0.12400
H158        H  0.18803578  0.25944194  0.22909198     0.14300
C159        C  0.17085321  0.37464677  0.45744379    -0.05700
C160        C  0.18001043  0.39687659  0.43530943    -0.05600
C161        C  0.16066891  0.37642602  0.41342770    -0.23800
C162        C  0.13152061  0.33319141  0.41306867     0.18400
C163        C  0.12287890  0.30974281  0.43484484     0.15600
C164        C  0.14277998  0.33061388  0.45698169    -0.18800
C165        C  0.09341930  0.26623654  0.43408032    -0.20700
C166        C  0.07129782  0.24688633  0.41225899    -0.13200
C167        C  0.07836210  0.27079113  0.39094440     0.03400
C168        C  0.10953858  0.31360065  0.39138597    -0.25400
H169        H  0.20180446  0.43054496  0.43483984     0.08500
H170        H  0.16779453  0.39473300  0.39683109     0.12100
H171        H  0.13547206  0.31291389  0.47380664     0.12100
H172        H  0.08637427  0.24756136  0.45051546     0.11800
H173        H  0.04703577  0.21394801  0.41239212     0.12400
H174        H  0.11525586  0.33227999  0.37499666     0.14300
C175        C  0.39934839  0.21563003  0.79088265    -0.05700
C176        C  0.42024654  0.22762112  0.76861355    -0.05600
C177        C  0.39822587  0.22331015  0.74674629    -0.23800
C178        C  0.35478471  0.20710843  0.74661039     0.18400
C179        C  0.33282166  0.19319287  0.76857054     0.15600
C180        C  0.35523786  0.19734928  0.79062287    -0.18800
C181        C  0.28914332  0.17704427  0.76811327    -0.20700
C182        C  0.26808011  0.17736912  0.74643343    -0.13200
C183        C  0.29043105  0.19373351  0.72496202     0.03400
C184        C  0.33344352  0.20682400  0.72502111    -0.25400
H185        H  0.45397950  0.24125394  0.76804807     0.08500
H186        H  0.41542254  0.23385085  0.73000221     0.12100
H187        H  0.33853885  0.18765546  0.80756192     0.12100
H188        H  0.27162871  0.16593604  0.78471026     0.11800
H189        H  0.23497019  0.16739155  0.74683097     0.12400
H190        H  0.35090486  0.21924040  0.70847347     0.14300
C191        C  0.11536801  0.29241043  0.78655041    -0.05700
C192        C  0.08900323  0.27215149  0.76611181    -0.05600
C193        C  0.10538850  0.26741478  0.74447277    -0.23800
C194        C  0.14851524  0.28266422  0.74276681     0.18400
C195        C  0.17582663  0.30444846  0.76273595     0.15600
C196        C  0.15909927  0.30936573  0.78452687    -0.18800
C197        C  0.21910092  0.31952226  0.76073975    -0.20700
C198        C  0.23467875  0.31102623  0.73966728    -0.13200
C199        C  0.20718142  0.28739826  0.72034167     0.03400
C200        C  0.16436819  0.27465932  0.72175008    -0.25400
H201        H  0.05537576  0.25914942  0.76690745     0.08500
H202        H  0.08411470  0.25083383  0.72923800     0.12100
H203        H  0.17995712  0.32525718  0.80003164     0.12100
H204        H  0.24063082  0.33645709  0.77580185     0.11800
H205        H  0.26772001  0.32078063  0.73906728     0.12400
H206        H  0.14291433  0.25654566  0.70686992     0.14300
C207        C  0.21573990  0.43817385  0.05630678    -0.05700
C208        C  0.18839370  0.43609512  0.07441695    -0.05600
C209        C  0.18204967  0.41104789  0.09518804    -0.23800
C210        C  0.20298916  0.38775017  0.09814214     0.18400
C211        C  0.22915097  0.38854121  0.07948545     0.15600
C212        C  0.23507832  0.41332945  0.05880645    -0.18800
C213        C  0.25013190  0.36551026  0.08200943    -0.20700
C214        C  0.24629883  0.34268319  0.10313569    -0.13200
C215        C  0.22139452  0.34227712  0.12232891     0.03400
C216        C  0.19917383  0.36450634  0.11952645    -0.25400
H217        H  0.17315784  0.45495700  0.07295513     0.08500
H218        H  0.16162978  0.41073081  0.10919248     0.12100
H219        H  0.25593601  0.41418036  0.04489665     0.12100
H220        H  0.27018226  0.36573093  0.06778303     0.11800
H221        H  0.26362997  0.32586416  0.10452384     0.12400
H222        H  0.17964124  0.36437941  0.13404011     0.14300
C223        C  0.30897258  0.11668058  0.05386989    -0.05700
C224        C  0.33028935  0.11154951  0.07406452    -0.05600
C225        C  0.33602516  0.13435352  0.09573962    -0.23800
C226        C  0.32041582  0.16247240  0.09745808     0.18400
C227        C  0.30203761  0.17013729  0.07650625     0.15600
C228        C  0.29679815  0.14754333  0.05488846    -0.18800
C229        C  0.28660350  0.19821376  0.07787543    -0.20700
C230        C  0.28661048  0.21636483  0.10017062    -0.13200
C231        C  0.30205888  0.20688649  0.12164450     0.03400
C232        C  0.32055966  0.18113372  0.11995033    -0.25400
H233        H  0.33977139  0.08779202  0.07368681     0.08500
H234        H  0.35063095  0.12833687  0.11150263     0.12100
H235        H  0.28060012  0.15192111  0.03929263     0.12100
H236        H  0.27288141  0.20478794  0.06188742     0.12400
H237        H  0.27287614  0.23662497  0.10065843     0.12400
H238        H  0.33309759  0.17390452  0.13622428     0.14300
C239        C  0.19129939  0.42890340  0.94982409    -0.05700
C240        C  0.14771553  0.40365483  0.95254065    -0.05600
C241        C  0.12258349  0.37439366  0.93459108    -0.23800
C242        C  0.14040669  0.37021028  0.91328761     0.18400
C243        C  0.18438194  0.39438105  0.91058701     0.15600
C244        C  0.20976271  0.42325546  0.92907861    -0.18800
C245        C  0.20185756  0.39035557  0.88902626    -0.20700
C246        C  0.17596170  0.36388959  0.87007037    -0.13200
C247        C  0.13202370  0.34066204  0.87230076     0.03400
C248        C  0.11467115  0.34336074  0.89431668    -0.25400
H249        H  0.13283353  0.40719735  0.96846546     0.08500
H250        H  0.08900508  0.35599696  0.93704570     0.12100
H251        H  0.24328227  0.44279500  0.92673961     0.12100
H252        H  0.23544320  0.40846191  0.88656333     0.11800
H253        H  0.19041460  0.36238441  0.85342343     0.12400
H254        H  0.08097449  0.32565031  0.89646510     0.14300
C255        C  0.40692668  0.20224875  0.88058053    -0.05700
C256        C  0.43086385  0.20369087  0.90137984    -0.05600
C257        C  0.41141736  0.18320940  0.92274721    -0.23800
C258        C  0.36757387  0.16088432  0.92385133     0.18400
C259        C  0.34292178  0.16095621  0.90367326     0.15600
C260        C  0.36276310  0.18174364  0.88212539    -0.18800
C261        C  0.29889401  0.13874615  0.90516285    -0.20700
C262        C  0.27961139  0.11474023  0.92588417    -0.13200
C263        C  0.30411100  0.11252437  0.94531456     0.03400
C264        C  0.34808661  0.13691387  0.94444924    -0.25400
H265        H  0.46477775  0.21938566  0.90093715     0.08500
H266        H  0.43071657  0.18372264  0.93818463     0.12100
H267        H  0.34377481  0.18066353  0.86637992     0.12100
H268        H  0.27939472  0.13869651  0.88997540     0.11800
H269        H  0.24568943  0.09619019  0.92615694     0.12400
H270        H  0.36729879  0.13583902  0.95949536     0.14300
O271        O  0.30684127  0.56574718  0.97420012    -0.73400
O272        O  0.26158179  0.97768752  0.02493084    -0.74400
O273        O  0.25424410  0.97608620  0.97309545    -0.63000
O274        O  0.31155084  0.56675353  0.02619462    -0.71400
O275        O  0.25583145  0.57533270  0.02488293    -0.71000
O276        O  0.19676671  0.98056217  0.97769789    -0.62200
O277        O  0.20643985  0.98616134  0.02948214    -0.74700
O278        O  0.24857612  0.56983662  0.97297905    -0.73500
Cu279      Cu  0.28556284  0.52140176  0.99948134     1.04600
Cu280      Cu  0.22490111  0.02821925  0.00126200     1.04300
C281        C  0.28533296  0.58144277  0.96516050     0.92800
C282        C  0.22793904  0.96854013  0.03585701     0.91900
C283        C  0.21558209  0.96341570  0.96767549     0.84100
C284        C  0.29199925  0.58524118  0.03378393     0.90300
C285        C  0.09666184  0.79423977  0.80993547     0.79700
N286        N  0.12144411  0.81482144  0.82972392    -0.78600
C287        C  0.10431334  0.81565238  0.85129686     0.82200
N288        N  0.06166831  0.79515882  0.85299475    -0.78500
C289        C  0.03652830  0.77462867  0.83327292     0.82300
N290        N  0.05425921  0.77453853  0.81187125    -0.80200
C291        C  0.42415015  0.72372427  0.81408496     0.79700
N292        N  0.40497074  0.71126150  0.83588138    -0.78600
C293        C  0.42805205  0.71935607  0.85705709     0.82200
N294        N  0.47082628  0.74050524  0.85623905    -0.78500
C295        C  0.49030976  0.75300553  0.83456747     0.82300
N296        N  0.46677952  0.74425454  0.81366123    -0.80200
O297        O  0.45197670  0.74031987  0.30648858    -0.73400
O298        O  0.04061759  0.77997272  0.35839401    -0.74400
O299        O  0.04103072  0.77726432  0.30653992    -0.63000
O300        O  0.45228952  0.74082859  0.35845908    -0.71400
O301        O  0.44388625  0.67637122  0.35601144    -0.71000
O302        O  0.03779163  0.71521162  0.31071874    -0.62200
O303        O  0.03189728  0.71559198  0.36258389    -0.74700
O304        O  0.44910524  0.67822981  0.30420809    -0.73500
Cu305      Cu  0.99663999  0.76180155  0.33235334     1.04600
Cu306      Cu  0.49047317  0.69410354  0.33333511     1.04300
C307        C  0.43689582  0.70384035  0.29670706     0.92800
C308        C  0.04925607  0.75435967  0.36949953     0.91900
C309        C  0.05402433  0.75164453  0.30105492     0.84100
C310        C  0.43433433  0.70225814  0.36538710     0.90300
C311        C  0.29560981  0.72148012  0.14560894     0.79700
N312        N  0.30838184  0.71160343  0.16693786    -0.78600
C313        C  0.29988751  0.72308495  0.18877761     0.82200
N314        N  0.27797642  0.74430210  0.18907489    -0.78500
C315        C  0.26525861  0.75441336  0.16785467     0.82300
N316        N  0.27440277  0.74309740  0.14635796    -0.80200
C317        C  0.19914320  0.80057942  0.18588803     0.79700
N318        N  0.22117252  0.77949170  0.18712599    -0.78600
C319        C  0.24233195  0.77810755  0.16749066     0.82200
N320        N  0.24144227  0.79796226  0.14670562    -0.78500
C321        C  0.22019408  0.81955227  0.14518214     0.82300
N322        N  0.19895492  0.82061293  0.16485301    -0.80200
O323        O  0.25180174  0.78291783  0.64067978    -0.73400
O324        O  0.29615731  0.73770723  0.69198978    -0.74400
O325        O  0.28760671  0.72925654  0.64034188    -0.63000
O326        O  0.25812804  0.78871762  0.69273843    -0.71400
O327        O  0.19385184  0.73319544  0.69226193    -0.71000
O328        O  0.22633456  0.67170540  0.64646470    -0.62200
O329        O  0.23268360  0.68328657  0.69807105    -0.74700
O330        O  0.18982334  0.72422584  0.64051877    -0.73500
Cu331      Cu  0.27562978  0.76166456  0.66627387     1.04600
Cu332      Cu  0.20845188  0.70110543  0.66936866     1.04300
C333        C  0.21450878  0.76096158  0.63197030     0.92800
C334        C  0.27189558  0.70467590  0.70384584     0.91900
C335        C  0.26131246  0.69023651  0.63577705     0.84100
C336        C  0.22061914  0.76956813  0.70063860     0.90300
C337        C  0.28512847  0.57850445  0.51797483     0.79700
N338        N  0.26169220  0.53559806  0.51956229    -0.78600
C339        C  0.25441174  0.51082426  0.49951933     0.82200
N340        N  0.27091614  0.52908490  0.47794023    -0.78500
C341        C  0.29485235  0.57171678  0.47612875     0.82300
N342        N  0.30167415  0.59619422  0.49620640    -0.80200
C343        C  0.20409007  0.90122807  0.52315832     0.79700
N344        N  0.22527023  0.94425204  0.52225218    -0.78600
C345        C  0.22926625  0.96446758  0.50085034     0.82200
N346        N  0.21184041  0.94145550  0.48018955    -0.78500
C347        C  0.18991495  0.89851004  0.48062507     0.82300
N348        N  0.18624933  0.87842632  0.50223210    -0.80200
C349        C  0.26983558  0.66538482  0.61791049    -0.05700
C350        C  0.25026059  0.62128482  0.62059138    -0.05600
C351        C  0.25227380  0.59588129  0.60237612    -0.23800
C352        C  0.27334879  0.61400146  0.58087526     0.18400
C353        C  0.29457843  0.65845670  0.57828958     0.15600
C354        C  0.29323330  0.68403842  0.59702525    -0.18800
C355        C  0.31515005  0.67629505  0.55655870    -0.20700
C356        C  0.31318129  0.65033788  0.53726245    -0.13200
C357        C  0.29082925  0.60598632  0.53933843     0.03400
C358        C  0.27196286  0.58817767  0.56156251    -0.25400
H359        H  0.23235046  0.60623289  0.63663179     0.08500
H360        H  0.23605235  0.56192398  0.60474897     0.12100
H361        H  0.30816395  0.71796682  0.59472575     0.12100
H362        H  0.33173061  0.71025359  0.55420781     0.11800
H363        H  0.32836658  0.66511493  0.52046593     0.12400
H364        H  0.25481099  0.55413942  0.56358802     0.14300
C365        C  0.20401729  0.88003921  0.54645018    -0.05700
C366        C  0.22784211  0.90475266  0.56668137    -0.05600
C367        C  0.23224922  0.88593952  0.58788335    -0.23800
C368        C  0.21273185  0.84192096  0.58947852     0.18400
C369        C  0.18702454  0.81637051  0.56987976     0.15600
C370        C  0.18282338  0.83559247  0.54841335    -0.18800
C371        C  0.16710724  0.77214070  0.57192897    -0.20700
C372        C  0.17404498  0.75361718  0.59275136    -0.13200
C373        C  0.20128779  0.77906624  0.61168982     0.03400
C374        C  0.21971826  0.82319484  0.61010396    -0.25400
H375        H  0.24432575  0.93893128  0.56596056     0.08500
H376        H  0.25177477  0.90592861  0.60285760     0.12100
H377        H  0.16407026  0.81601397  0.53311185     0.12100
H378        H  0.14705418  0.75192725  0.55718929     0.11800
H379        H  0.15967219  0.71954948  0.59355827     0.12400
H380        H  0.24051848  0.84311702  0.62473697     0.14300
C381        C  0.40408759  0.68677241  0.38531785    -0.05700
C382        C  0.40709984  0.71364422  0.40447324    -0.05600
C383        C  0.38455545  0.69679975  0.42578840    -0.23800
C384        C  0.35877497  0.65287599  0.42819601     0.18400
C385        C  0.35407018  0.62600480  0.40844785     0.15600
C386        C  0.37634127  0.64311046  0.38715751    -0.18800
C387        C  0.32859383  0.58221176  0.41062695    -0.20700
C388        C  0.30884230  0.56488840  0.43246476    -0.13200
C389        C  0.31406037  0.59098348  0.45259904     0.03400
C390        C  0.33866045  0.63520204  0.45017382    -0.25400
H391        H  0.42862318  0.74733634  0.40353839     0.08500
H392        H  0.38846007  0.71795229  0.44069766     0.12100
H393        H  0.37366126  0.62210091  0.37241886     0.12100
H394        H  0.32465215  0.56124304  0.39559630     0.11800
H395        H  0.29002313  0.53083198  0.43365415     0.12400
H396        H  0.34290996  0.65581277  0.46546322     0.14300
C397        C  0.31637024  0.71476713  0.21201392    -0.05700
C398        C  0.31121520  0.73072829  0.23417235    -0.05600
C399        C  0.33056640  0.72767550  0.25571897    -0.23800
C400        C  0.35554913  0.70860102  0.25562638     0.18400
C401        C  0.35920313  0.69016348  0.23390533     0.15600
C402        C  0.33946455  0.69323646  0.21220263    -0.18800
C403        C  0.38410699  0.67074972  0.23413844    -0.20700
C404        C  0.40727989  0.67213817  0.25525606    -0.13200
C405        C  0.40590791  0.69304905  0.27634483     0.03400
C406        C  0.37869195  0.70974013  0.27662693    -0.25400
H407        H  0.29331652  0.74696270  0.23479470     0.08500
H408        H  0.32713298  0.74155775  0.27232005     0.12100
H409        H  0.34342568  0.68027907  0.19538216     0.12100
H410        H  0.38704621  0.65609081  0.21773152     0.11800
H411        H  0.42818117  0.65922837  0.25463402     0.12400
H412        H  0.37719756  0.72562903  0.29292884     0.14300
C413        C  0.08762190  0.76278464  0.28334518    -0.05700
C414        C  0.11182794  0.74268264  0.28498401    -0.05600
C415        C  0.14027085  0.74822421  0.26702595    -0.23800
C416        C  0.14470033  0.77352997  0.24680088     0.18400
C417        C  0.12148908  0.79495058  0.24520912     0.15600
C418        C  0.09343785  0.78993055  0.26370184    -0.18800
C419        C  0.12568936  0.81975897  0.22471227    -0.20700
C420        C  0.15156225  0.82227276  0.20571291    -0.13200
C421        C  0.17406729  0.80029262  0.20686159     0.03400
C422        C  0.17098037  0.77659640  0.22780943    -0.25400
H423        H  0.10816339  0.72187461  0.30004353     0.08500
H424        H  0.15791997  0.73172348  0.26862293     0.12100
H425        H  0.07471644  0.80531863  0.26217847     0.12100
H426        H  0.10827223  0.83648890  0.22311582     0.11800
H427        H  0.15338436  0.84099409  0.18991555     0.12400
H428        H  0.18804873  0.75946819  0.22909659     0.14300
C429        C  0.17084180  0.87468148  0.45744727    -0.05700
C430        C  0.17997302  0.89692116  0.43531673    -0.05600
C431        C  0.16062911  0.87647442  0.41343477    -0.23800
C432        C  0.13150458  0.83323351  0.41307132     0.18400
C433        C  0.12288676  0.80977643  0.43484316     0.15600
C434        C  0.14278964  0.83064408  0.45698055    -0.18800
C435        C  0.09345017  0.76626381  0.43407387    -0.20700
C436        C  0.07132863  0.74691372  0.41225242    -0.13200
C437        C  0.07837010  0.77082490  0.39094231     0.03400
C438        C  0.10952361  0.81364307  0.39138848    -0.25400
H439        H  0.20174912  0.93059385  0.43485019     0.08500
H440        H  0.16773542  0.89478831  0.39684148     0.12100
H441        H  0.13550157  0.81293659  0.47380234     0.12100
H442        H  0.08642348  0.74758208  0.45050560     0.11800
H443        H  0.04708454  0.71396829  0.41238235     0.12400
H444        H  0.11522419  0.83232795  0.37500283     0.14300
C445        C  0.39931140  0.71557289  0.79086723    -0.05700
C446        C  0.42020847  0.72756762  0.76859791    -0.05600
C447        C  0.39818645  0.72325768  0.74673128    -0.23800
C448        C  0.35474484  0.70705319  0.74659618     0.18400
C449        C  0.33278203  0.69312882  0.76855586     0.15600
C450        C  0.35519967  0.69728354  0.79060761    -0.18800
C451        C  0.28910298  0.67697683  0.76809909    -0.20700
C452        C  0.26803954  0.67731095  0.74642120    -0.13200
C453        C  0.29039094  0.69368730  0.72495111     0.03400
C454        C  0.33340340  0.70677708  0.72500873    -0.25400
H455        H  0.45394205  0.74120594  0.76803205     0.08500
H456        H  0.41538282  0.73380418  0.72998737     0.12100
H457        H  0.33850111  0.68758543  0.80754669     0.12100
H458        H  0.27158819  0.66586058  0.78469557     0.11800
H459        H  0.23492937  0.66733171  0.74681983     0.12400
H460        H  0.35086514  0.71920113  0.70846193     0.14300
C461        C  0.11534273  0.79241610  0.78653562    -0.05700
C462        C  0.08897979  0.77215488  0.76609679    -0.05600
C463        C  0.10536729  0.76741644  0.74445914    -0.23800
C464        C  0.14849433  0.78266607  0.74275483     0.18400
C465        C  0.17580418  0.80445382  0.76272378     0.15600
C466        C  0.15907462  0.80937344  0.78451324    -0.18800
C467        C  0.21907882  0.81952737  0.76072910    -0.20700
C468        C  0.23465824  0.81102616  0.73965892    -0.13200
C469        C  0.20716203  0.78739371  0.72033397     0.03400
C470        C  0.16434890  0.77465696  0.72174027    -0.25400
H471        H  0.05535206  0.75915149  0.76689144     0.08500
H472        H  0.08409468  0.75083289  0.72922432     0.12100
H473        H  0.17993119  0.82526695  0.80001821     0.12100
H474        H  0.24060772  0.83646536  0.77579104     0.11800
H475        H  0.26769943  0.82077996  0.73906044     0.12400
H476        H  0.14289575  0.75654064  0.70686039     0.14300
C477        C  0.21571069  0.93814909  0.05629621    -0.05700
C478        C  0.18837212  0.93607695  0.07440941    -0.05600
C479        C  0.18203487  0.91103500  0.09518214    -0.23800
C480        C  0.20297438  0.88773708  0.09813502     0.18400
C481        C  0.22912815  0.88852119  0.07947539     0.15600
C482        C  0.23504731  0.91330271  0.05879436    -0.18800
C483        C  0.25011050  0.86549142  0.08199873    -0.20700
C484        C  0.24628646  0.84267208  0.10312715    -0.13200
C485        C  0.22138910  0.84227205  0.12232272     0.03400
C486        C  0.19916730  0.86450025  0.11952104    -0.25400
H487        H  0.17313844  0.95494099  0.07294893     0.08500
H488        H  0.16162130  0.91072325  0.10918906     0.12100
H489        H  0.25589931  0.91414878  0.04488224     0.12100
H490        H  0.27015511  0.86570726  0.06777016     0.11800
H491        H  0.26361788  0.82585328  0.10451476     0.12400
H492        H  0.17964042  0.86437832  0.13403668     0.14300
C493        C  0.30900198  0.61671341  0.05387021    -0.05700
C494        C  0.33032959  0.61159166  0.07406247    -0.05600
C495        C  0.33607064  0.63440019  0.09573644    -0.23800
C496        C  0.32045602  0.66251453  0.09745608     0.18400
C497        C  0.30206885  0.67017199  0.07650572     0.15600
C498        C  0.29682375  0.64757324  0.05488907    -0.18800
C499        C  0.28663083  0.69824505  0.07787572    -0.20700
C500        C  0.28664047  0.71639774  0.10017084    -0.13200
C501        C  0.30209479  0.70692391  0.12164398     0.03400
C502        C  0.32060207  0.68117713  0.11994844    -0.25400
H503        H  0.33981598  0.58783748  0.07368431     0.08500
H504        H  0.35068415  0.62838989  0.11149805     0.12100
H505        H  0.28061831  0.65194468  0.03929482     0.12100
H506        H  0.27290255  0.70481420  0.06188873     0.12400
H507        H  0.27290155  0.73665375  0.10065944     0.12400
H508        H  0.33314537  0.67395219  0.13622160     0.14300
C509        C  0.19127718  0.92888782  0.94981418    -0.05700
C510        C  0.14769423  0.90363570  0.95253334    -0.05600
C511        C  0.12256003  0.87437637  0.93458330    -0.23800
C512        C  0.14037999  0.87019878  0.91327678     0.18400
C513        C  0.18435463  0.89437259  0.91057405     0.15600
C514        C  0.20973758  0.92324459  0.92906603    -0.18800
C515        C  0.20182767  0.89035324  0.88901079    -0.20700
C516        C  0.17593011  0.86389060  0.87005451    -0.13200
C517        C  0.13199248  0.84066005  0.87228664     0.03400
C518        C  0.11464221  0.84335252  0.89430499    -0.25400
H519        H  0.13281467  0.90717458  0.96846040     0.08500
H520        H  0.08898228  0.85597708  0.93703990     0.12100
H521        H  0.24325637  0.94278675  0.92672516     0.12100
H522        H  0.23541280  0.90846192  0.88654627     0.11800
H523        H  0.19038166  0.86239028  0.85340590     0.12400
H524        H  0.08094593  0.82563951  0.89645478     0.14300
C525        C  0.40690161  0.70224489  0.88056944    -0.05700
C526        C  0.43084479  0.70371589  0.90137233    -0.05600
C527        C  0.41140449  0.68324434  0.92274316    -0.23800
C528        C  0.36756123  0.66090064  0.92384711     0.18400
C529        C  0.34290228  0.66094554  0.90366526     0.15600
C530        C  0.36273735  0.68172314  0.88211400    -0.18800
C531        C  0.29887470  0.63871782  0.90515460    -0.20700
C532        C  0.27960014  0.61472021  0.92587968    -0.13200
C533        C  0.30410779  0.61253020  0.94531397     0.03400
C534        C  0.34808185  0.63693743  0.94444869    -0.25400
H535        H  0.46475948  0.71942530  0.90093012     0.08500
H536        H  0.43070880  0.68377919  0.93818345     0.12100
H537        H  0.34374429  0.68062137  0.86636587     0.12100
H538        H  0.27937010  0.63864744  0.88996426     0.11800
H539        H  0.24567910  0.59615553  0.92615251     0.12400
H540        H  0.36729929  0.63588153  0.95949772     0.14300
O541        O  0.80682698  0.06572790  0.97419721    -0.73400
O542        O  0.76161058  0.47771342  0.02494030    -0.74400
O543        O  0.75426592  0.47610502  0.97310425    -0.63000
O544        O  0.81152545  0.06672568  0.02619172    -0.71400
O545        O  0.75580933  0.07531025  0.02487718    -0.71000
O546        O  0.69678593  0.48057541  0.97770886    -0.62200
O547        O  0.70646659  0.48618352  0.02949252    -0.74700
O548        O  0.74856664  0.06982580  0.97297287    -0.73500
Cu549      Cu  0.78554011  0.02137872  0.99947524     1.04600
Cu550      Cu  0.72492061  0.52823629  0.00127060     1.04300
C551        C  0.78532514  0.08143029  0.96515731     0.92800
C552        C  0.72796804  0.46856488  0.03586738     0.91900
C553        C  0.71560298  0.46343144  0.96768549     0.84100
C554        C  0.79197411  0.08521382  0.03378084     0.90300
C555        C  0.59668987  0.29423647  0.80995079     0.79700
N556        N  0.62147410  0.31481746  0.82973890    -0.78600
C557        C  0.60434477  0.31565255  0.85131162     0.82200
N558        N  0.56170010  0.29516434  0.85300959    -0.78500
C559        C  0.53655865  0.27463562  0.83328833     0.82300
N560        N  0.55428753  0.27454122  0.81188672    -0.80200
C561        C  0.92418420  0.22376883  0.81410015     0.79700
N562        N  0.90500242  0.21129647  0.83589535    -0.78600
C563        C  0.92808121  0.21937257  0.85707068     0.82200
N564        N  0.97085555  0.24051310  0.85625351    -0.78500
C565        C  0.99034100  0.25302268  0.83458289     0.82300
N566        N  0.96681311  0.24428972  0.81367703    -0.80200
O567        O  0.95198854  0.24032068  0.30648390    -0.73400
O568        O  0.54061715  0.27995280  0.35839718    -0.74400
O569        O  0.54104147  0.27725450  0.30654405    -0.63000
O570        O  0.95228895  0.24082124  0.35845374    -0.71400
O571        O  0.94387673  0.17636039  0.35600518    -0.71000
O572        O  0.53779015  0.21519559  0.31071897    -0.62200
O573        O  0.53188585  0.21556702  0.36258324    -0.74700
O574        O  0.94910642  0.17822564  0.30420271    -0.73500
Cu575      Cu  0.49664572  0.26179262  0.33235275     1.04600
Cu576      Cu  0.99046748  0.19408937  0.33333203     1.04300
C577        C  0.93690406  0.20384145  0.29670129     0.92800
C578        C  0.54924907  0.25433377  0.36950115     0.91900
C579        C  0.55403049  0.25163145  0.30105834     0.84100
C580        C  0.93432743  0.20224987  0.36538011     0.90300
C581        C  0.79557845  0.22144777  0.14560881     0.79700
N582        N  0.80835649  0.21157693  0.16693748    -0.78600
C583        C  0.79987137  0.22306712  0.18877713     0.82200
N584        N  0.77796378  0.24428763  0.18907461    -0.78500
C585        C  0.76524010  0.25439332  0.16785457     0.82300
N586        N  0.77437484  0.24306854  0.14635774    -0.80200
C587        C  0.69915340  0.30058654  0.18589511     0.79700
N588        N  0.72117250  0.27948858  0.18712945    -0.78600
C589        C  0.74232103  0.27809466  0.16749167     0.82200
N590        N  0.74143141  0.29795059  0.14670723    -0.78500
C591        C  0.72019376  0.31955163  0.14518705     0.82300
N592        N  0.69896466  0.32062177  0.16486078    -0.80200
O593        O  0.75181831  0.28293304  0.64068429    -0.73400
O594        O  0.79619264  0.23774107  0.69199502    -0.74400
O595        O  0.78764262  0.22928936  0.64034735    -0.63000
O596        O  0.75814757  0.28873450  0.69274289    -0.71400
O597        O  0.69387526  0.23320572  0.69226581    -0.71000
O598        O  0.72638017  0.17172661  0.64647217    -0.62200
O599        O  0.73272312  0.18331431  0.69807814    -0.74700
O600        O  0.68984878  0.22423025  0.64052265    -0.73500
Cu601      Cu  0.77565631  0.26168948  0.66627856     1.04600
Cu602      Cu  0.70848540  0.20112077  0.66937406     1.04300
C603        C  0.71452658  0.26096831  0.63197441     0.92800
C604        C  0.77193435  0.20471108  0.70385319     0.91900
C605        C  0.76135755  0.19026651  0.63578418     0.84100
C606        C  0.72063924  0.26957903  0.70064350     0.90300
C607        C  0.78514232  0.07853265  0.51797579     0.79700
N608        N  0.76170722  0.03562640  0.51956689    -0.78600
C609        C  0.75442275  0.01084876  0.49952514     0.82200
N610        N  0.77092225  0.02910483  0.47794448    -0.78500
C611        C  0.79485735  0.07173569  0.47612952     0.82300
N612        N  0.80168271  0.09621757  0.49620544    -0.80200
C613        C  0.70407817  0.40120626  0.52315623     0.79700
N614        N  0.72525570  0.44422983  0.52224780    -0.78600
C615        C  0.72925835  0.46444231  0.50084403     0.82200
N616        N  0.71184147  0.44142694  0.48018300    -0.78500
C617        C  0.68991823  0.39848111  0.48062090     0.82300
N618        N  0.68624607  0.37840120  0.50223008    -0.80200
C619        C  0.76989198  0.16542307  0.61791850    -0.05700
C620        C  0.75036178  0.12132856  0.62061202    -0.05600
C621        C  0.75237996  0.09592683  0.60239710    -0.23800
C622        C  0.77341241  0.11404303  0.58088406     0.18400
C623        C  0.79459788  0.15849508  0.57828576     0.15600
C624        C  0.79325048  0.18407559  0.59702099    -0.18800
C625        C  0.81512608  0.17632983  0.55654340    -0.20700
C626        C  0.81315677  0.15037042  0.53724861    -0.13200
C627        C  0.79084681  0.10602020  0.53933711     0.03400
C628        C  0.77202527  0.08821711  0.56157199    -0.25400
H629        H  0.73248204  0.10627913  0.63666213     0.08500
H630        H  0.73619300  0.06197232  0.60477982     0.12100
H631        H  0.80814518  0.21799968  0.59471204     0.12100
H632        H  0.83167185  0.21028609  0.55418277     0.11800
H633        H  0.82830632  0.16514378  0.52044338     0.12400
H634        H  0.75490735  0.05418019  0.56360717     0.14300
C635        C  0.70400227  0.38002179  0.54645052    -0.05700
C636        C  0.72781977  0.40473955  0.56668227    -0.05600
C637        C  0.73223019  0.38593140  0.58788556    -0.23800
C638        C  0.71272337  0.34191360  0.58948154     0.18400
C639        C  0.68702088  0.31635845  0.56988278     0.15600
C640        C  0.68281616  0.33557541  0.54841511    -0.18800
C641        C  0.66711352  0.27212935  0.57193291    -0.20700
C642        C  0.67405793  0.25361150  0.59275572    -0.13200
C643        C  0.70129764  0.27906574  0.61169376     0.03400
C644        C  0.71971661  0.32319320  0.61010745    -0.25400
H645        H  0.74429664  0.43891802  0.56596061     0.08500
H646        H  0.75175134  0.40592404  0.60285995     0.12100
H647        H  0.66406817  0.31599349  0.53311332     0.12100
H648        H  0.64706380  0.25191224  0.55719335     0.11800
H649        H  0.65969333  0.21954461  0.59356314     0.12400
H650        H  0.74051386  0.34311926  0.62474031     0.14300
C651        C  0.90407732  0.18676693  0.38530898    -0.05700
C652        C  0.90708109  0.21364406  0.40445905    -0.05600
C653        C  0.88453571  0.19680497  0.42577438    -0.23800
C654        C  0.85876322  0.15288137  0.42818752     0.18400
C655        C  0.85406537  0.12600436  0.40844401     0.15600
C656        C  0.87633659  0.14310461  0.38715320    -0.18800
C657        C  0.82859700  0.08221143  0.41062866    -0.20700
C658        C  0.80884786  0.06489426  0.43246783    -0.13200
C659        C  0.81406039  0.09099561  0.45259786     0.03400
C660        C  0.83865101  0.13521364  0.45016671    -0.25400
H661        H  0.92859912  0.24733687  0.40352042     0.08500
H662        H  0.88843434  0.21796188  0.44067984     0.12100
H663        H  0.87366224  0.12209089  0.37241844     0.12100
H664        H  0.82466061  0.06123824  0.39560162     0.11800
H665        H  0.79003583  0.03083782  0.43366187     0.12400
H666        H  0.84289557  0.15582886  0.46545274     0.14300
C667        C  0.81636229  0.21475671  0.21201255    -0.05700
C668        C  0.81121108  0.23072054  0.23417105    -0.05600
C669        C  0.83056923  0.22767385  0.25571638    -0.23800
C670        C  0.85555510  0.20860285  0.25562231     0.18400
C671        C  0.85920633  0.19016367  0.23390115     0.15600
C672        C  0.83946091  0.19323058  0.21219988    -0.18800
C673        C  0.88411310  0.17075315  0.23413268    -0.20700
C674        C  0.90728926  0.17214404  0.25524924    -0.13200
C675        C  0.90591841  0.19305481  0.27633836     0.03400
C676        C  0.87870219  0.20974544  0.27662163    -0.25400
H677        H  0.79330940  0.24695174  0.23479440     0.08500
H678        H  0.82713791  0.24155729  0.27231756     0.12100
H679        H  0.84341958  0.18027159  0.19537933     0.12100
H680        H  0.88705064  0.15609353  0.21772561     0.11800
H681        H  0.92819096  0.15923476  0.25462637     0.12400
H682        H  0.87720889  0.22563433  0.29292381     0.14300
C683        C  0.58763033  0.26277163  0.28335051    -0.05700
C684        C  0.61181691  0.24264804  0.28498024    -0.05600
C685        C  0.64026019  0.24819215  0.26702209    -0.23800
C686        C  0.64470923  0.27352231  0.24680618     0.18400
C687        C  0.62151958  0.29496588  0.24522450     0.15600
C688        C  0.59346823  0.28994293  0.26371751    -0.18800
C689        C  0.62573945  0.31979877  0.22473636    -0.20700
C690        C  0.65160743  0.32231149  0.20573429    -0.13200
C691        C  0.67408841  0.30030665  0.20687240     0.03400
C692        C  0.67098555  0.27658906  0.22781292    -0.25400
H693        H  0.60813628  0.22182100  0.30003206     0.08500
H694        H  0.65789319  0.23167390  0.26861120     0.12100
H695        H  0.57476272  0.30534888  0.26220154     0.12100
H696        H  0.60833965  0.33654728  0.22314810     0.11800
H697        H  0.65344388  0.34105055  0.18994298     0.12400
H698        H  0.68803577  0.25944192  0.22909198     0.14300
C699        C  0.67085317  0.37464677  0.45744379    -0.05700
C700        C  0.68001036  0.39687661  0.43530943    -0.05600
C701        C  0.66066885  0.37642604  0.41342770    -0.23800
C702        C  0.63152058  0.33319142  0.41306867     0.18400
C703        C  0.62287888  0.30974281  0.43484484     0.15600
C704        C  0.64277996  0.33061388  0.45698168    -0.18800
C705        C  0.59341930  0.26623653  0.43408031    -0.20700
C706        C  0.57129782  0.24688632  0.41225898    -0.13200
C707        C  0.57836208  0.27079113  0.39094440     0.03400
C708        C  0.60953856  0.31360066  0.39138597    -0.25400
H709        H  0.70180436  0.43054497  0.43483985     0.08500
H710        H  0.66779445  0.39473302  0.39683110     0.12100
H711        H  0.63547206  0.31291388  0.47380663     0.12100
H712        H  0.58637427  0.24756135  0.45051545     0.11800
H713        H  0.54703577  0.21394800  0.41239211     0.12400
H714        H  0.61525582  0.33227999  0.37499666     0.14300
C715        C  0.89934839  0.21563003  0.79088265    -0.05700
C716        C  0.92024654  0.22762112  0.76861355    -0.05600
C717        C  0.89822586  0.22331015  0.74674629    -0.23800
C718        C  0.85478470  0.20710843  0.74661039     0.18400
C719        C  0.83282165  0.19319287  0.76857054     0.15600
C720        C  0.85523786  0.19734928  0.79062287    -0.18800
C721        C  0.78914332  0.17704427  0.76811327    -0.20700
C722        C  0.76808010  0.17736912  0.74643344    -0.13200
C723        C  0.79043104  0.19373350  0.72496202     0.03400
C724        C  0.83344351  0.20682399  0.72502111    -0.25400
H725        H  0.95397949  0.24125394  0.76804807     0.08500
H726        H  0.91542254  0.23385085  0.73000221     0.12100
H727        H  0.83853885  0.18765546  0.80756192     0.12100
H728        H  0.77162870  0.16593604  0.78471027     0.11800
H729        H  0.73497018  0.16739154  0.74683097     0.12400
H730        H  0.85090485  0.21924040  0.70847347     0.14300
C731        C  0.61536801  0.29241043  0.78655041    -0.05700
C732        C  0.58900323  0.27215149  0.76611181    -0.05600
C733        C  0.60538849  0.26741477  0.74447277    -0.23800
C734        C  0.64851524  0.28266422  0.74276681     0.18400
C735        C  0.67582663  0.30444847  0.76273595     0.15600
C736        C  0.65909926  0.30936573  0.78452687    -0.18800
C737        C  0.71910092  0.31952227  0.76073974    -0.20700
C738        C  0.73467875  0.31102623  0.73966728    -0.13200
C739        C  0.70718141  0.28739826  0.72034167     0.03400
C740        C  0.66436818  0.27465932  0.72175007    -0.25400
H741        H  0.55537576  0.25914942  0.76690745     0.08500
H742        H  0.58411469  0.25083383  0.72923800     0.12100
H743        H  0.67995712  0.32525719  0.80003164     0.12100
H744        H  0.74063082  0.33645710  0.77580184     0.11800
H745        H  0.76772000  0.32078064  0.73906727     0.12400
H746        H  0.64291432  0.25654565  0.70686992     0.14300
C747        C  0.71573995  0.43817385  0.05630678    -0.05700
C748        C  0.68839373  0.43609511  0.07441694    -0.05600
C749        C  0.68204968  0.41104787  0.09518803    -0.23800
C750        C  0.70298917  0.38775016  0.09814214     0.18400
C751        C  0.72915101  0.38854121  0.07948546     0.15600
C752        C  0.73507838  0.41332947  0.05880646    -0.18800
C753        C  0.75013195  0.36551028  0.08200943    -0.20700
C754        C  0.74629885  0.34268319  0.10313569    -0.13200
C755        C  0.72139453  0.34227712  0.12232891     0.03400
C756        C  0.69917383  0.36450633  0.11952645    -0.25400
H757        H  0.67315786  0.45495698  0.07295511     0.08500
H758        H  0.66162977  0.41073078  0.10919246     0.12100
H759        H  0.75593608  0.41418038  0.04489666     0.12100
H760        H  0.77018232  0.36573095  0.06778304     0.11800
H761        H  0.76363000  0.32586417  0.10452385     0.12400
H762        H  0.67964123  0.36437939  0.13404010     0.14300
C763        C  0.80897260  0.11668058  0.05386989    -0.05700
C764        C  0.83028938  0.11154951  0.07406452    -0.05600
C765        C  0.83602519  0.13435353  0.09573961    -0.23800
C766        C  0.82041585  0.16247241  0.09745807     0.18400
C767        C  0.80203765  0.17013731  0.07650625     0.15600
C768        C  0.79679818  0.14754334  0.05488846    -0.18800
C769        C  0.78660354  0.19821379  0.07787542    -0.20700
C770        C  0.78661053  0.21636484  0.10017062    -0.13200
C771        C  0.80205890  0.20688649  0.12164450     0.03400
C772        C  0.82055968  0.18113372  0.11995033    -0.25400
H773        H  0.83977142  0.08779203  0.07368681     0.08500
H774        H  0.85063099  0.12833688  0.11150263     0.12100
H775        H  0.78060015  0.15192112  0.03929263     0.12100
H776        H  0.77288147  0.20478797  0.06188742     0.12400
H777        H  0.77287618  0.23662499  0.10065844     0.12400
H778        H  0.83309761  0.17390451  0.13622428     0.14300
C779        C  0.69129942  0.42890340  0.94982409    -0.05700
C780        C  0.64771556  0.40365483  0.95254065    -0.05600
C781        C  0.62258353  0.37439367  0.93459108    -0.23800
C782        C  0.64040672  0.37021028  0.91328761     0.18400
C783        C  0.68438195  0.39438105  0.91058701     0.15600
C784        C  0.70976271  0.42325545  0.92907861    -0.18800
C785        C  0.70185754  0.39035556  0.88902625    -0.20700
C786        C  0.67596171  0.36388959  0.87007036    -0.13200
C787        C  0.63202371  0.34066204  0.87230075     0.03400
C788        C  0.61467119  0.34336074  0.89431668    -0.25400
H789        H  0.63283356  0.40719735  0.96846547     0.08500
H790        H  0.58900511  0.35599695  0.93704571     0.12100
H791        H  0.74328229  0.44279501  0.92673960     0.12100
H792        H  0.73544322  0.40846192  0.88656332     0.11800
H793        H  0.69041461  0.36238443  0.85342342     0.12400
H794        H  0.58097451  0.32565029  0.89646510     0.14300
C795        C  0.90692668  0.20224875  0.88058053    -0.05700
C796        C  0.93086385  0.20369087  0.90137984    -0.05600
C797        C  0.91141736  0.18320940  0.92274721    -0.23800
C798        C  0.86757386  0.16088433  0.92385132     0.18400
C799        C  0.84292177  0.16095621  0.90367326     0.15600
C800        C  0.86276309  0.18174364  0.88212539    -0.18800
C801        C  0.79889401  0.13874615  0.90516285    -0.20700
C802        C  0.77961138  0.11474023  0.92588417    -0.13200
C803        C  0.80411100  0.11252438  0.94531456     0.03400
C804        C  0.84808661  0.13691387  0.94444924    -0.25400
H805        H  0.96477775  0.21938566  0.90093715     0.08500
H806        H  0.93071656  0.18372265  0.93818463     0.12100
H807        H  0.84377480  0.18066353  0.86637992     0.12100
H808        H  0.77939471  0.13869651  0.88997540     0.11800
H809        H  0.74568942  0.09619019  0.92615694     0.12400
H810        H  0.86729879  0.13583903  0.95949536     0.14300
O811        O  0.80684129  0.56574719  0.97420011    -0.73400
O812        O  0.76158181  0.97768752  0.02493084    -0.74400
O813        O  0.75424412  0.97608621  0.97309545    -0.63000
O814        O  0.81155087  0.56675354  0.02619461    -0.71400
O815        O  0.75583148  0.57533269  0.02488294    -0.71000
O816        O  0.69676673  0.98056217  0.97769789    -0.62200
O817        O  0.70643987  0.98616134  0.02948214    -0.74700
O818        O  0.74857614  0.56983661  0.97297905    -0.73500
Cu819      Cu  0.78556287  0.52140176  0.99948133     1.04600
Cu820      Cu  0.72490112  0.02821925  0.00126200     1.04300
C821        C  0.78533297  0.58144277  0.96516050     0.92800
C822        C  0.72793906  0.96854013  0.03585701     0.91900
C823        C  0.71558211  0.96341570  0.96767549     0.84100
C824        C  0.79199928  0.58524119  0.03378393     0.90300
C825        C  0.59666184  0.79423977  0.80993547     0.79700
N826        N  0.62144411  0.81482145  0.82972392    -0.78600
C827        C  0.60431334  0.81565239  0.85129686     0.82200
N828        N  0.56166831  0.79515882  0.85299475    -0.78500
C829        C  0.53652829  0.77462867  0.83327292     0.82300
N830        N  0.55425921  0.77453853  0.81187125    -0.80200
C831        C  0.92415015  0.72372428  0.81408496     0.79700
N832        N  0.90497074  0.71126151  0.83588138    -0.78600
C833        C  0.92805205  0.71935607  0.85705709     0.82200
N834        N  0.97082628  0.74050524  0.85623905    -0.78500
C835        C  0.99030976  0.75300553  0.83456747     0.82300
N836        N  0.96677952  0.74425454  0.81366124    -0.80200
O837        O  0.95197670  0.74031987  0.30648858    -0.73400
O838        O  0.54061757  0.77997271  0.35839402    -0.74400
O839        O  0.54103072  0.77726432  0.30653992    -0.63000
O840        O  0.95228954  0.74082858  0.35845909    -0.71400
O841        O  0.94388628  0.67637121  0.35601144    -0.71000
O842        O  0.53779162  0.71521162  0.31071875    -0.62200
O843        O  0.53189726  0.71559197  0.36258389    -0.74700
O844        O  0.94910525  0.67822981  0.30420809    -0.73500
Cu845      Cu  0.49663998  0.76180155  0.33235333     1.04600
Cu846      Cu  0.99047318  0.69410354  0.33333510     1.04300
C847        C  0.93689582  0.70384035  0.29670706     0.92800
C848        C  0.54925605  0.75435967  0.36949953     0.91900
C849        C  0.55402432  0.75164452  0.30105493     0.84100
C850        C  0.93433435  0.70225814  0.36538711     0.90300
C851        C  0.79560980  0.72148011  0.14560894     0.79700
N852        N  0.80838183  0.71160343  0.16693786    -0.78600
C853        C  0.79988751  0.72308495  0.18877762     0.82200
N854        N  0.77797642  0.74430209  0.18907490    -0.78500
C855        C  0.76525861  0.75441335  0.16785467     0.82300
N856        N  0.77440276  0.74309740  0.14635797    -0.80200
C857        C  0.69914320  0.80057942  0.18588803     0.79700
N858        N  0.72117252  0.77949170  0.18712599    -0.78600
C859        C  0.74233195  0.77810755  0.16749066     0.82200
N860        N  0.74144227  0.79796225  0.14670562    -0.78500
C861        C  0.72019407  0.81955227  0.14518214     0.82300
N862        N  0.69895491  0.82061292  0.16485301    -0.80200
O863        O  0.75180174  0.78291782  0.64067978    -0.73400
O864        O  0.79615729  0.73770721  0.69198978    -0.74400
O865        O  0.78760671  0.72925653  0.64034188    -0.63000
O866        O  0.75812804  0.78871760  0.69273843    -0.71400
O867        O  0.69385183  0.73319543  0.69226192    -0.71000
O868        O  0.72633456  0.67170539  0.64646471    -0.62200
O869        O  0.73268359  0.68328655  0.69807106    -0.74700
O870        O  0.68982334  0.72422583  0.64051877    -0.73500
Cu871      Cu  0.77562977  0.76166454  0.66627387     1.04600
Cu872      Cu  0.70845187  0.70110542  0.66936866     1.04300
C873        C  0.71450878  0.76096157  0.63197030     0.92800
C874        C  0.77189557  0.70467589  0.70384584     0.91900
C875        C  0.76131246  0.69023650  0.63577705     0.84100
C876        C  0.72061914  0.76956812  0.70063860     0.90300
C877        C  0.78512846  0.57850444  0.51797482     0.79700
N878        N  0.76169219  0.53559805  0.51956228    -0.78600
C879        C  0.75441174  0.51082426  0.49951933     0.82200
N880        N  0.77091613  0.52908489  0.47794022    -0.78500
C881        C  0.79485233  0.57171677  0.47612874     0.82300
N882        N  0.80167414  0.59619421  0.49620640    -0.80200
C883        C  0.70409008  0.90122806  0.52315831     0.79700
N884        N  0.72527023  0.94425203  0.52225218    -0.78600
C885        C  0.72926626  0.96446757  0.50085034     0.82200
N886        N  0.71184043  0.94145549  0.48018954    -0.78500
C887        C  0.68991498  0.89851004  0.48062506     0.82300
N888        N  0.68624935  0.87842631  0.50223209    -0.80200
C889        C  0.76983557  0.66538481  0.61791049    -0.05700
C890        C  0.75026058  0.62128481  0.62059137    -0.05600
C891        C  0.75227379  0.59588128  0.60237611    -0.23800
C892        C  0.77334878  0.61400145  0.58087525     0.18400
C893        C  0.79457842  0.65845669  0.57828958     0.15600
C894        C  0.79323330  0.68403841  0.59702525    -0.18800
C895        C  0.81515005  0.67629504  0.55655870    -0.20700
C896        C  0.81318130  0.65033787  0.53726244    -0.13200
C897        C  0.79082925  0.60598632  0.53933843     0.03400
C898        C  0.77196285  0.58817766  0.56156251    -0.25400
H899        H  0.73235045  0.60623287  0.63663179     0.08500
H900        H  0.73605233  0.56192397  0.60474897     0.12100
H901        H  0.80816395  0.71796681  0.59472575     0.12100
H902        H  0.83173062  0.71025358  0.55420781     0.11800
H903        H  0.82836658  0.66511492  0.52046593     0.12400
H904        H  0.75481097  0.55413941  0.56358801     0.14300
C905        C  0.70401729  0.88003919  0.54645017    -0.05700
C906        C  0.72784211  0.90475264  0.56668136    -0.05600
C907        C  0.73224922  0.88593950  0.58788334    -0.23800
C908        C  0.71273185  0.84192094  0.58947851     0.18400
C909        C  0.68702453  0.81637050  0.56987975     0.15600
C910        C  0.68282335  0.83559245  0.54841333    -0.18800
C911        C  0.66710722  0.77214068  0.57192896    -0.20700
C912        C  0.67404500  0.75361721  0.59275135    -0.13200
C913        C  0.70128780  0.77906623  0.61168981     0.03400
C914        C  0.71971827  0.82319484  0.61010395    -0.25400
H915        H  0.74432576  0.93893126  0.56596056     0.08500
H916        H  0.75177477  0.90592859  0.60285759     0.12100
H917        H  0.66407024  0.81601396  0.53311185     0.12100
H918        H  0.64705417  0.75192723  0.55718930     0.11800
H919        H  0.65967219  0.71954946  0.59355827     0.12400
H920        H  0.74051850  0.84311701  0.62473696     0.14300
C921        C  0.90408762  0.68677240  0.38531786    -0.05700
C922        C  0.90709987  0.71364420  0.40447325    -0.05600
C923        C  0.88455546  0.69679974  0.42578841    -0.23800
C924        C  0.85877498  0.65287598  0.42819601     0.18400
C925        C  0.85407019  0.62600478  0.40844785     0.15600
C926        C  0.87634130  0.64311045  0.38715752    -0.18800
C927        C  0.82859384  0.58221175  0.41062695    -0.20700
C928        C  0.80884230  0.56488840  0.43246475    -0.13200
C929        C  0.81406036  0.59098348  0.45259904     0.03400
C930        C  0.83866044  0.63520204  0.45017382    -0.25400
H931        H  0.92862321  0.74733633  0.40353840     0.08500
H932        H  0.88846007  0.71795228  0.44069766     0.12100
H933        H  0.87366130  0.62210090  0.37241887     0.12100
H934        H  0.82465216  0.56124303  0.39559630     0.11800
H935        H  0.79002311  0.53083197  0.43365415     0.12400
H936        H  0.84290994  0.65581276  0.46546321     0.14300
C937        C  0.81637024  0.71476713  0.21201392    -0.05700
C938        C  0.81121519  0.73072829  0.23417235    -0.05600
C939        C  0.83056640  0.72767551  0.25571897    -0.23800
C940        C  0.85554913  0.70860102  0.25562638     0.18400
C941        C  0.85920313  0.69016348  0.23390533     0.15600
C942        C  0.83946455  0.69323646  0.21220264    -0.18800
C943        C  0.88410698  0.67074972  0.23413844    -0.20700
C944        C  0.90727989  0.67213817  0.25525606    -0.13200
C945        C  0.90590791  0.69304905  0.27634484     0.03400
C946        C  0.87869195  0.70974013  0.27662693    -0.25400
H947        H  0.79331652  0.74696270  0.23479470     0.08500
H948        H  0.82713297  0.74155775  0.27232005     0.12100
H949        H  0.84342568  0.68027907  0.19538216     0.12100
H950        H  0.88704621  0.65609081  0.21773152     0.11800
H951        H  0.92818116  0.65922837  0.25463402     0.12400
H952        H  0.87719756  0.72562903  0.29292884     0.14300
C953        C  0.58762189  0.76278464  0.28334518    -0.05700
C954        C  0.61182793  0.74268263  0.28498401    -0.05600
C955        C  0.64027084  0.74822420  0.26702595    -0.23800
C956        C  0.64470032  0.77352997  0.24680089     0.18400
C957        C  0.62148908  0.79495058  0.24520912     0.15600
C958        C  0.59343784  0.78993054  0.26370184    -0.18800
C959        C  0.62568936  0.81975897  0.22471227    -0.20700
C960        C  0.65156225  0.82227277  0.20571291    -0.13200
C961        C  0.67406728  0.80029262  0.20686159     0.03400
C962        C  0.67098036  0.77659640  0.22780943    -0.25400
H963        H  0.60816338  0.72187460  0.30004353     0.08500
H964        H  0.65791996  0.73172347  0.26862293     0.12100
H965        H  0.57471643  0.80531863  0.26217847     0.12100
H966        H  0.60827223  0.83648890  0.22311583     0.11800
H967        H  0.65338436  0.84099410  0.18991556     0.12400
H968        H  0.68804872  0.75946819  0.22909659     0.14300
C969        C  0.67084183  0.87468148  0.45744726    -0.05700
C970        C  0.67997303  0.89692116  0.43531672    -0.05600
C971        C  0.66062911  0.87647442  0.41343477    -0.23800
C972        C  0.63150458  0.83323351  0.41307132     0.18400
C973        C  0.62288677  0.80977643  0.43484316     0.15600
C974        C  0.64278965  0.83064408  0.45698054    -0.18800
C975        C  0.59345017  0.76626381  0.43407387    -0.20700
C976        C  0.57132862  0.74691372  0.41225243    -0.13200
C977        C  0.57837008  0.77082490  0.39094231     0.03400
C978        C  0.60952359  0.81364307  0.39138848    -0.25400
H979        H  0.70174914  0.93059384  0.43485018     0.08500
H980        H  0.66773541  0.89478831  0.39684147     0.12100
H981        H  0.63550160  0.81293659  0.47380234     0.12100
H982        H  0.58642349  0.74758208  0.45050560     0.11800
H983        H  0.54708452  0.71396829  0.41238235     0.12400
H984        H  0.61522416  0.83232794  0.37500283     0.14300
C985        C  0.89931141  0.71557292  0.79086723    -0.05700
C986        C  0.92020849  0.72756769  0.76859791    -0.05600
C987        C  0.89818646  0.72325775  0.74673129    -0.23800
C988        C  0.85474484  0.70705323  0.74659619     0.18400
C989        C  0.83278204  0.69312882  0.76855587     0.15600
C990        C  0.85519968  0.69728355  0.79060761    -0.18800
C991        C  0.78910298  0.67697680  0.76809910    -0.20700
C992        C  0.76803956  0.67731093  0.74642120    -0.13200
C993        C  0.79039094  0.69368729  0.72495111     0.03400
C994        C  0.83340340  0.70677711  0.72500873    -0.25400
H995        H  0.95394206  0.74120604  0.76803205     0.08500
H996        H  0.91538282  0.73380428  0.72998737     0.12100
H997        H  0.83850111  0.68758540  0.80754669     0.12100
H998        H  0.77158818  0.66586054  0.78469556     0.11800
H999        H  0.73492935  0.66733166  0.74681982     0.12400
H1000       H  0.85086514  0.71920117  0.70846194     0.14300
C1001       C  0.61534273  0.79241610  0.78653561    -0.05700
C1002       C  0.58897979  0.77215488  0.76609679    -0.05600
C1003       C  0.60536729  0.76741644  0.74445914    -0.23800
C1004       C  0.64849433  0.78266606  0.74275483     0.18400
C1005       C  0.67580418  0.80445382  0.76272378     0.15600
C1006       C  0.65907462  0.80937345  0.78451324    -0.18800
C1007       C  0.71907882  0.81952737  0.76072910    -0.20700
C1008       C  0.73465823  0.81102615  0.73965892    -0.13200
C1009       C  0.70716202  0.78739370  0.72033397     0.03400
C1010       C  0.66434890  0.77465695  0.72174027    -0.25400
H1011       H  0.55535205  0.75915149  0.76689144     0.08500
H1012       H  0.58409468  0.75083289  0.72922432     0.12100
H1013       H  0.67993119  0.82526696  0.80001820     0.12100
H1014       H  0.74060772  0.83646536  0.77579103     0.11800
H1015       H  0.76769943  0.82077995  0.73906044     0.12400
H1016       H  0.64289575  0.75654064  0.70686038     0.14300
C1017       C  0.71571071  0.93814909  0.05629621    -0.05700
C1018       C  0.68837215  0.93607695  0.07440941    -0.05600
C1019       C  0.68203487  0.91103501  0.09518214    -0.23800
C1020       C  0.70297439  0.88773708  0.09813502     0.18400
C1021       C  0.72912816  0.88852119  0.07947539     0.15600
C1022       C  0.73504733  0.91330271  0.05879436    -0.18800
C1023       C  0.75011051  0.86549141  0.08199873    -0.20700
C1024       C  0.74628645  0.84267208  0.10312715    -0.13200
C1025       C  0.72138909  0.84227205  0.12232272     0.03400
C1026       C  0.69916729  0.86450024  0.11952104    -0.25400
H1027       H  0.67313846  0.95494100  0.07294893     0.08500
H1028       H  0.66162131  0.91072326  0.10918905     0.12100
H1029       H  0.75589933  0.91414879  0.04488224     0.12100
H1030       H  0.77015511  0.86570725  0.06777016     0.11800
H1031       H  0.76361788  0.82585327  0.10451476     0.12400
H1032       H  0.67964041  0.86437832  0.13403668     0.14300
C1033       C  0.80900200  0.61671341  0.05387021    -0.05700
C1034       C  0.83032961  0.61159166  0.07406247    -0.05600
C1035       C  0.83607065  0.63440020  0.09573644    -0.23800
C1036       C  0.82045602  0.66251453  0.09745608     0.18400
C1037       C  0.80206885  0.67017199  0.07650572     0.15600
C1038       C  0.79682376  0.64757324  0.05488907    -0.18800
C1039       C  0.78663082  0.69824504  0.07787572    -0.20700
C1040       C  0.78664046  0.71639773  0.10017084    -0.13200
C1041       C  0.80209478  0.70692391  0.12164398     0.03400
C1042       C  0.82060206  0.68117713  0.11994844    -0.25400
H1043       H  0.83981601  0.58783750  0.07368431     0.08500
H1044       H  0.85068417  0.62838990  0.11149806     0.12100
H1045       H  0.78061832  0.65194467  0.03929482     0.12100
H1046       H  0.77290254  0.70481419  0.06188873     0.12400
H1047       H  0.77290154  0.73665373  0.10065944     0.12400
H1048       H  0.83314537  0.67395219  0.13622160     0.14300
C1049       C  0.69127719  0.92888782  0.94981419    -0.05700
C1050       C  0.64769424  0.90363569  0.95253336    -0.05600
C1051       C  0.62256007  0.87437636  0.93458331    -0.23800
C1052       C  0.64038000  0.87019878  0.91327678     0.18400
C1053       C  0.68435464  0.89437260  0.91057405     0.15600
C1054       C  0.70973759  0.92324459  0.92906602    -0.18800
C1055       C  0.70182767  0.89035326  0.88901078    -0.20700
C1056       C  0.67593011  0.86389062  0.87005450    -0.13200
C1057       C  0.63199248  0.84066006  0.87228663     0.03400
C1058       C  0.61464223  0.84335252  0.89430499    -0.25400
H1059       H  0.63281470  0.90717454  0.96846041     0.08500
H1060       H  0.58898230  0.85597705  0.93703991     0.12100
H1061       H  0.74325638  0.94278677  0.92672515     0.12100
H1062       H  0.73541281  0.90846195  0.88654625     0.11800
H1063       H  0.69038166  0.86239030  0.85340589     0.12400
H1064       H  0.58094594  0.82563951  0.89645479     0.14300
C1065       C  0.90690161  0.70224489  0.88056944    -0.05700
C1066       C  0.93084479  0.70371589  0.90137233    -0.05600
C1067       C  0.91140449  0.68324435  0.92274316    -0.23800
C1068       C  0.86756123  0.66090065  0.92384711     0.18400
C1069       C  0.84290228  0.66094554  0.90366526     0.15600
C1070       C  0.86273735  0.68172315  0.88211400    -0.18800
C1071       C  0.79887470  0.63871782  0.90515460    -0.20700
C1072       C  0.77960014  0.61472021  0.92587968    -0.13200
C1073       C  0.80410779  0.61253020  0.94531397     0.03400
C1074       C  0.84808185  0.63693744  0.94444869    -0.25400
H1075       H  0.96475948  0.71942530  0.90093012     0.08500
H1076       H  0.93070880  0.68377920  0.93818345     0.12100
H1077       H  0.84374429  0.68062137  0.86636587     0.12100
H1078       H  0.77937010  0.63864744  0.88996426     0.11800
H1079       H  0.74567910  0.59615553  0.92615251     0.12400
H1080       H  0.86729929  0.63588154  0.95949772     0.14300
loop_ 
_geom_bond_atom_site_label_1 
_geom_bond_atom_site_label_2 
_geom_bond_distance 
_geom_bond_site_symmetry_2 
_ccdc_geom_bond_type 
O1           Cu9   1.981       .  S
O1           C11   1.274       .  A
O2         Cu279   1.977   1_554  S
O2           C12   1.274       .  A
O3         Cu279   2.047       .  S
O3           C13   1.283       .  A
O4           Cu9   2.043   1_554  S
O4           C14   1.282       .  A
O5         Cu280   1.980       .  S
O5           C14   1.274       .  A
O6          Cu10   1.981   1_556  S
O6           C13   1.274       .  A
O7          Cu10   2.050       .  S
O7           C12   1.283       .  A
O8         Cu280   2.049   1_556  S
O8           C11   1.283       .  A
Cu9         O272   1.977   1_546  S
Cu9         O273   2.047   1_545  S
Cu9        Cu280   2.366   1_556  S
Cu10        O275   1.980       .  S
Cu10        O278   2.049   1_554  S
Cu10       Cu279   2.366   1_554  S
C11         C263   1.481       .  S
C12         C207   1.485       .  S
C13         C239   1.480       .  S
C14         C223   1.478       .  S
C15         C191   1.488       .  S
C15          N16   1.359       .  A
C15          N20   1.359       .  A
N16          C17   1.361       .  A
C17         C247   1.489       .  S
C17          N18   1.365       .  A
N18          C19   1.360       .  A
C19         C565   1.478   1_455  S
C19          N20   1.357       .  A
C21         C175   1.488       .  S
C21          N22   1.360       .  A
C21          N26   1.360       .  A
N22          C23   1.362       .  A
C23         C255   1.489       .  S
C23          N24   1.365       .  A
N24          C25   1.359       .  A
C25         C559   1.478       .  S
C25          N26   1.356       .  A
O27        Cu575   1.982       .  S
O27          C37   1.274       .  A
O28         Cu35   1.977   1_455  S
O28          C38   1.274       .  A
O29         Cu35   2.044   1_455  S
O29          C39   1.282       .  A
O30        Cu575   2.039       .  S
O30          C40   1.282       .  A
O31         Cu36   1.973       .  S
O31          C40   1.274       .  A
O32        Cu576   1.981   1_455  S
O32          C39   1.274       .  A
O33        Cu576   2.049   1_455  S
O33          C38   1.283       .  A
O34         Cu36   2.050       .  S
O34          C37   1.283       .  A
Cu35        O567   1.982       .  S
Cu35        O570   2.039       .  S
Cu35       Cu576   2.365       .  S
Cu36        O572   1.981       .  S
Cu36        O573   2.049       .  S
Cu36       Cu575   2.365       .  S
C37         C135   1.479       .  S
C38         C167   1.479       .  S
C39         C143   1.480       .  S
C40         C111   1.477       .  S
C41         C231   1.488       .  S
C41          N42   1.361       .  A
C41          N46   1.357       .  A
N42          C43   1.364       .  A
C43         C127   1.490       .  S
C43          N44   1.366       .  A
N44          C45   1.359       .  A
C45          C49   1.476       .  S
C45          N46   1.355       .  A
C47         C151   1.489       .  S
C47          N48   1.366       .  A
C47          N52   1.364       .  A
N48          C49   1.360       .  A
C49          N50   1.355       .  A
N50          C51   1.358       .  A
C51         C215   1.488       .  S
C51          N52   1.359       .  A
O53         Cu61   1.984       .  S
O53          C63   1.274       .  A
O54         Cu61   1.976       .  S
O54          C64   1.274       .  A
O55         Cu61   2.044       .  S
O55          C65   1.282       .  A
O56         Cu61   2.046       .  S
O56          C66   1.282       .  A
O57         Cu62   1.976       .  S
O57          C66   1.274       .  A
O58         Cu62   1.978       .  S
O58          C65   1.274       .  A
O59         Cu62   2.045       .  S
O59          C64   1.282       .  A
O60         Cu62   2.046       .  S
O60          C63   1.282       .  A
Cu61        Cu62   2.365       .  S
C63         C103   1.480       .  S
C64         C183   1.478       .  S
C65          C79   1.478       .  S
C66         C199   1.479       .  S
C67          C87   1.487       .  S
C67          N68   1.364       .  A
C67          N72   1.360       .  A
N68          C69   1.360       .  A
C69         C345   1.473   1_545  S
C69          N70   1.356       .  A
N70          C71   1.358       .  A
C71         C119   1.484       .  S
C71          N72   1.358       .  A
C73          C95   1.489       .  S
C73          N74   1.363       .  A
C73          N78   1.366       .  A
N74          C75   1.354       .  A
C75         C339   1.473       .  S
C75          N76   1.354       .  A
N76          C77   1.360       .  A
C77         C159   1.490       .  S
C77          N78   1.364       .  A
C79          C80   1.407       .  A
C79          C84   1.405       .  A
C80          C81   1.394       .  A
C80          H89   1.083       .  S
C81          C82   1.399       .  A
C81          H90   1.084       .  S
C82          C88   1.403       .  A
C82          C83   1.415       .  A
C83          C85   1.401       .  A
C83          C84   1.409       .  A
C84          H91   1.084       .  S
C85          C86   1.399       .  A
C85          H92   1.083       .  S
C86          C87   1.409       .  A
C86          H93   1.083       .  S
C87          C88   1.405       .  A
C88          H94   1.084       .  S
C95          C96   1.408       .  A
C95         C100   1.412       .  A
C96          C97   1.393       .  A
C96         H105   1.083       .  S
C97          C98   1.399       .  A
C97         H106   1.084       .  S
C98         C104   1.401       .  A
C98          C99   1.413       .  A
C99         C101   1.407       .  A
C99         C100   1.411       .  A
C100        H107   1.084       .  S
C101        C102   1.404       .  A
C101        H108   1.083       .  S
C102        C103   1.404       .  A
C102        H109   1.083       .  S
C103        C104   1.405       .  A
C104        H110   1.085       .  S
C111        C112   1.404       .  A
C111        C116   1.405       .  A
C112        C113   1.402       .  A
C112        H121   1.083       .  S
C113        C114   1.406       .  A
C113        H122   1.083       .  S
C114        C120   1.406       .  A
C114        C115   1.412       .  A
C115        C117   1.399       .  A
C115        C116   1.399       .  A
C116        H123   1.085       .  S
C117        C118   1.393       .  A
C117        H124   1.084       .  S
C118        C119   1.407       .  A
C118        H125   1.083       .  S
C119        C120   1.411       .  A
C120        H126   1.084       .  S
C127        C128   1.407       .  A
C127        C132   1.413       .  A
C128        C129   1.395       .  A
C128        H137   1.083       .  S
C129        C130   1.400       .  A
C129        H138   1.084       .  S
C130        C136   1.401       .  A
C130        C131   1.412       .  A
C131        C133   1.408       .  A
C131        C132   1.410       .  A
C132        H139   1.084       .  S
C133        C134   1.405       .  A
C133        H140   1.083       .  S
C134        C135   1.404       .  A
C134        H141   1.083       .  S
C135        C136   1.406       .  A
C136        H142   1.085       .  S
C143        C144   1.407       .  A
C143        C148   1.406       .  A
C144        C145   1.394       .  A
C144        H153   1.083       .  S
C145        C146   1.399       .  A
C145        H154   1.084       .  S
C146        C152   1.404       .  A
C146        C147   1.415       .  A
C147        C149   1.402       .  A
C147        C148   1.410       .  A
C148        H155   1.084       .  S
C149        C150   1.400       .  A
C149        H156   1.083       .  S
C150        C151   1.409       .  A
C150        H157   1.083       .  S
C151        C152   1.406       .  A
C152        H158   1.084       .  S
C159        C160   1.408       .  A
C159        C164   1.413       .  A
C160        C161   1.392       .  A
C160        H169   1.083       .  S
C161        C162   1.398       .  A
C161        H170   1.084       .  S
C162        C168   1.400       .  A
C162        C163   1.413       .  A
C163        C165   1.408       .  A
C163        C164   1.413       .  A
C164        H171   1.084       .  S
C165        C166   1.406       .  A
C165        H172   1.083       .  S
C166        C167   1.405       .  A
C166        H173   1.083       .  S
C167        C168   1.404       .  A
C168        H174   1.085       .  S
C175        C176   1.407       .  A
C175        C180   1.412       .  A
C176        C177   1.393       .  A
C176        H185   1.083       .  S
C177        C178   1.399       .  A
C177        H186   1.084       .  S
C178        C184   1.400       .  A
C178        C179   1.413       .  A
C179        C181   1.407       .  A
C179        C180   1.410       .  A
C180        H187   1.084       .  S
C181        C182   1.404       .  A
C181        H188   1.083       .  S
C182        C183   1.404       .  A
C182        H189   1.083       .  S
C183        C184   1.405       .  A
C184        H190   1.085       .  S
C191        C192   1.407       .  A
C191        C196   1.413       .  A
C192        C193   1.394       .  A
C192        H201   1.083       .  S
C193        C194   1.399       .  A
C193        H202   1.084       .  S
C194        C200   1.400       .  A
C194        C195   1.412       .  A
C195        C197   1.407       .  A
C195        C196   1.409       .  A
C196        H203   1.084       .  S
C197        C198   1.404       .  A
C197        H204   1.083       .  S
C198        C199   1.404       .  A
C198        H205   1.083       .  S
C199        C200   1.405       .  A
C200        H206   1.085       .  S
C207        C208   1.406       .  A
C207        C212   1.406       .  A
C208        C209   1.406       .  A
C208        H217   1.083       .  S
C209        C210   1.408       .  A
C209        H218   1.083       .  S
C210        C216   1.412       .  A
C210        C211   1.412       .  A
C211        C213   1.398       .  A
C211        C212   1.399       .  A
C212        H219   1.084       .  S
C213        C214   1.392       .  A
C213        H220   1.084       .  S
C214        C215   1.407       .  A
C214        H221   1.083       .  S
C215        C216   1.413       .  A
C216        H222   1.084       .  S
C223        C224   1.404       .  A
C223        C228   1.404       .  A
C224        C225   1.404       .  A
C224        H233   1.083       .  S
C225        C226   1.406       .  A
C225        H234   1.083       .  S
C226        C232   1.410       .  A
C226        C227   1.413       .  A
C227        C229   1.398       .  A
C227        C228   1.400       .  A
C228        H235   1.085       .  S
C229        C230   1.393       .  A
C229        H236   1.084       .  S
C230        C231   1.408       .  A
C230        H237   1.083       .  S
C231        C232   1.411       .  A
C232        H238   1.084       .  S
C239        C240   1.406       .  A
C239        C244   1.406       .  A
C240        C241   1.394       .  A
C240        H249   1.083       .  S
C241        C242   1.399       .  A
C241        H250   1.084       .  S
C242        C248   1.404       .  A
C242        C243   1.415       .  A
C243        C245   1.402       .  A
C243        C244   1.411       .  A
C244        H251   1.084       .  S
C245        C246   1.400       .  A
C245        H252   1.083       .  S
C246        C247   1.410       .  A
C246        H253   1.083       .  S
C247        C248   1.406       .  A
C248        H254   1.084       .  S
C255        C256   1.406       .  A
C255        C260   1.413       .  A
C256        C257   1.395       .  A
C256        H265   1.083       .  S
C257        C258   1.400       .  A
C257        H266   1.084       .  S
C258        C264   1.401       .  A
C258        C259   1.412       .  A
C259        C261   1.408       .  A
C259        C260   1.410       .  A
C260        H267   1.084       .  S
C261        C262   1.405       .  A
C261        H268   1.083       .  S
C262        C263   1.404       .  A
C262        H269   1.083       .  S
C263        C264   1.406       .  A
C264        H270   1.085       .  S
O271       Cu279   1.981       .  S
O271        C281   1.274       .  A
O272        C282   1.274       .  A
O273        C283   1.283       .  A
O274       Cu279   2.043   1_554  S
O274        C284   1.282       .  A
O275        C284   1.274       .  A
O276       Cu280   1.981   1_566  S
O276        C283   1.274       .  A
O277       Cu280   2.050   1_565  S
O277        C282   1.283       .  A
O278        C281   1.283       .  A
C281        C533   1.481       .  S
C282        C477   1.485       .  S
C283        C509   1.480       .  S
C284        C493   1.478       .  S
C285        C461   1.488       .  S
C285        N286   1.359       .  A
C285        N290   1.359       .  A
N286        C287   1.361       .  A
C287        C517   1.489       .  S
C287        N288   1.365       .  A
N288        C289   1.360       .  A
C289        C835   1.478   1_455  S
C289        N290   1.357       .  A
C291        C445   1.488       .  S
C291        N292   1.360       .  A
C291        N296   1.360       .  A
N292        C293   1.362       .  A
C293        C525   1.489       .  S
C293        N294   1.365       .  A
N294        C295   1.359       .  A
C295        C829   1.478       .  S
C295        N296   1.356       .  A
O297       Cu845   1.982       .  S
O297        C307   1.274       .  A
O298       Cu305   1.977   1_455  S
O298        C308   1.274       .  A
O299       Cu305   2.044   1_455  S
O299        C309   1.282       .  A
O300       Cu845   2.039       .  S
O300        C310   1.282       .  A
O301       Cu306   1.973       .  S
O301        C310   1.274       .  A
O302       Cu846   1.981   1_455  S
O302        C309   1.274       .  A
O303       Cu846   2.049   1_455  S
O303        C308   1.283       .  A
O304       Cu306   2.050       .  S
O304        C307   1.283       .  A
Cu305       O837   1.982       .  S
Cu305       O840   2.039       .  S
Cu305      Cu846   2.365       .  S
Cu306       O842   1.981       .  S
Cu306       O843   2.049       .  S
Cu306      Cu845   2.365       .  S
C307        C405   1.479       .  S
C308        C437   1.479       .  S
C309        C413   1.480       .  S
C310        C381   1.477       .  S
C311        C501   1.488       .  S
C311        N312   1.361       .  A
C311        N316   1.357       .  A
N312        C313   1.364       .  A
C313        C397   1.490       .  S
C313        N314   1.366       .  A
N314        C315   1.359       .  A
C315        C319   1.476       .  S
C315        N316   1.355       .  A
C317        C421   1.489       .  S
C317        N318   1.366       .  A
C317        N322   1.364       .  A
N318        C319   1.360       .  A
C319        N320   1.355       .  A
N320        C321   1.358       .  A
C321        C485   1.488       .  S
C321        N322   1.359       .  A
O323       Cu331   1.984       .  S
O323        C333   1.274       .  A
O324       Cu331   1.976       .  S
O324        C334   1.274       .  A
O325       Cu331   2.044       .  S
O325        C335   1.282       .  A
O326       Cu331   2.046       .  S
O326        C336   1.282       .  A
O327       Cu332   1.976       .  S
O327        C336   1.274       .  A
O328       Cu332   1.978       .  S
O328        C335   1.274       .  A
O329       Cu332   2.045       .  S
O329        C334   1.282       .  A
O330       Cu332   2.046       .  S
O330        C333   1.282       .  A
Cu331      Cu332   2.365       .  S
C333        C373   1.480       .  S
C334        C453   1.478       .  S
C335        C349   1.478       .  S
C336        C469   1.479       .  S
C337        C357   1.487       .  S
C337        N338   1.364       .  A
C337        N342   1.360       .  A
N338        C339   1.360       .  A
C339        N340   1.356       .  A
N340        C341   1.358       .  A
C341        C389   1.484       .  S
C341        N342   1.358       .  A
C343        C365   1.489       .  S
C343        N344   1.363       .  A
C343        N348   1.366       .  A
N344        C345   1.354       .  A
C345        N346   1.354       .  A
N346        C347   1.360       .  A
C347        C429   1.490       .  S
C347        N348   1.364       .  A
C349        C350   1.407       .  A
C349        C354   1.405       .  A
C350        C351   1.394       .  A
C350        H359   1.083       .  S
C351        C352   1.399       .  A
C351        H360   1.084       .  S
C352        C358   1.403       .  A
C352        C353   1.415       .  A
C353        C355   1.401       .  A
C353        C354   1.409       .  A
C354        H361   1.084       .  S
C355        C356   1.399       .  A
C355        H362   1.083       .  S
C356        C357   1.409       .  A
C356        H363   1.083       .  S
C357        C358   1.405       .  A
C358        H364   1.084       .  S
C365        C366   1.408       .  A
C365        C370   1.412       .  A
C366        C367   1.393       .  A
C366        H375   1.083       .  S
C367        C368   1.399       .  A
C367        H376   1.084       .  S
C368        C374   1.401       .  A
C368        C369   1.413       .  A
C369        C371   1.407       .  A
C369        C370   1.411       .  A
C370        H377   1.084       .  S
C371        C372   1.404       .  A
C371        H378   1.083       .  S
C372        C373   1.404       .  A
C372        H379   1.083       .  S
C373        C374   1.405       .  A
C374        H380   1.085       .  S
C381        C382   1.404       .  A
C381        C386   1.405       .  A
C382        C383   1.402       .  A
C382        H391   1.083       .  S
C383        C384   1.406       .  A
C383        H392   1.083       .  S
C384        C390   1.407       .  A
C384        C385   1.412       .  A
C385        C387   1.399       .  A
C385        C386   1.399       .  A
C386        H393   1.085       .  S
C387        C388   1.393       .  A
C387        H394   1.084       .  S
C388        C389   1.407       .  A
C388        H395   1.083       .  S
C389        C390   1.411       .  A
C390        H396   1.084       .  S
C397        C398   1.407       .  A
C397        C402   1.413       .  A
C398        C399   1.395       .  A
C398        H407   1.083       .  S
C399        C400   1.400       .  A
C399        H408   1.084       .  S
C400        C406   1.401       .  A
C400        C401   1.412       .  A
C401        C403   1.408       .  A
C401        C402   1.410       .  A
C402        H409   1.084       .  S
C403        C404   1.405       .  A
C403        H410   1.083       .  S
C404        C405   1.404       .  A
C404        H411   1.083       .  S
C405        C406   1.406       .  A
C406        H412   1.085       .  S
C413        C414   1.407       .  A
C413        C418   1.406       .  A
C414        C415   1.394       .  A
C414        H423   1.083       .  S
C415        C416   1.399       .  A
C415        H424   1.084       .  S
C416        C422   1.404       .  A
C416        C417   1.415       .  A
C417        C419   1.402       .  A
C417        C418   1.410       .  A
C418        H425   1.084       .  S
C419        C420   1.400       .  A
C419        H426   1.083       .  S
C420        C421   1.409       .  A
C420        H427   1.083       .  S
C421        C422   1.406       .  A
C422        H428   1.084       .  S
C429        C430   1.408       .  A
C429        C434   1.413       .  A
C430        C431   1.392       .  A
C430        H439   1.083       .  S
C431        C432   1.398       .  A
C431        H440   1.084       .  S
C432        C438   1.400       .  A
C432        C433   1.413       .  A
C433        C435   1.408       .  A
C433        C434   1.413       .  A
C434        H441   1.084       .  S
C435        C436   1.406       .  A
C435        H442   1.083       .  S
C436        C437   1.405       .  A
C436        H443   1.083       .  S
C437        C438   1.404       .  A
C438        H444   1.085       .  S
C445        C446   1.407       .  A
C445        C450   1.412       .  A
C446        C447   1.393       .  A
C446        H455   1.083       .  S
C447        C448   1.399       .  A
C447        H456   1.084       .  S
C448        C454   1.400       .  A
C448        C449   1.413       .  A
C449        C451   1.407       .  A
C449        C450   1.410       .  A
C450        H457   1.084       .  S
C451        C452   1.404       .  A
C451        H458   1.083       .  S
C452        C453   1.404       .  A
C452        H459   1.083       .  S
C453        C454   1.405       .  A
C454        H460   1.085       .  S
C461        C462   1.407       .  A
C461        C466   1.413       .  A
C462        C463   1.394       .  A
C462        H471   1.083       .  S
C463        C464   1.399       .  A
C463        H472   1.084       .  S
C464        C470   1.400       .  A
C464        C465   1.412       .  A
C465        C467   1.407       .  A
C465        C466   1.409       .  A
C466        H473   1.084       .  S
C467        C468   1.404       .  A
C467        H474   1.083       .  S
C468        C469   1.404       .  A
C468        H475   1.083       .  S
C469        C470   1.405       .  A
C470        H476   1.085       .  S
C477        C478   1.406       .  A
C477        C482   1.406       .  A
C478        C479   1.406       .  A
C478        H487   1.083       .  S
C479        C480   1.408       .  A
C479        H488   1.083       .  S
C480        C486   1.412       .  A
C480        C481   1.412       .  A
C481        C483   1.398       .  A
C481        C482   1.399       .  A
C482        H489   1.084       .  S
C483        C484   1.392       .  A
C483        H490   1.084       .  S
C484        C485   1.407       .  A
C484        H491   1.083       .  S
C485        C486   1.413       .  A
C486        H492   1.084       .  S
C493        C494   1.404       .  A
C493        C498   1.404       .  A
C494        C495   1.404       .  A
C494        H503   1.083       .  S
C495        C496   1.406       .  A
C495        H504   1.083       .  S
C496        C502   1.410       .  A
C496        C497   1.413       .  A
C497        C499   1.398       .  A
C497        C498   1.400       .  A
C498        H505   1.085       .  S
C499        C500   1.393       .  A
C499        H506   1.084       .  S
C500        C501   1.408       .  A
C500        H507   1.083       .  S
C501        C502   1.411       .  A
C502        H508   1.084       .  S
C509        C510   1.406       .  A
C509        C514   1.406       .  A
C510        C511   1.394       .  A
C510        H519   1.083       .  S
C511        C512   1.399       .  A
C511        H520   1.084       .  S
C512        C518   1.404       .  A
C512        C513   1.415       .  A
C513        C515   1.402       .  A
C513        C514   1.411       .  A
C514        H521   1.084       .  S
C515        C516   1.400       .  A
C515        H522   1.083       .  S
C516        C517   1.410       .  A
C516        H523   1.083       .  S
C517        C518   1.406       .  A
C518        H524   1.084       .  S
C525        C526   1.406       .  A
C525        C530   1.413       .  A
C526        C527   1.395       .  A
C526        H535   1.083       .  S
C527        C528   1.400       .  A
C527        H536   1.084       .  S
C528        C534   1.401       .  A
C528        C529   1.412       .  A
C529        C531   1.408       .  A
C529        C530   1.410       .  A
C530        H537   1.084       .  S
C531        C532   1.405       .  A
C531        H538   1.083       .  S
C532        C533   1.404       .  A
C532        H539   1.083       .  S
C533        C534   1.406       .  A
C534        H540   1.085       .  S
O541       Cu549   1.981       .  S
O541        C551   1.274       .  A
O542       Cu819   1.977   1_554  S
O542        C552   1.274       .  A
O543       Cu819   2.047       .  S
O543        C553   1.283       .  A
O544       Cu549   2.043   1_554  S
O544        C554   1.282       .  A
O545       Cu820   1.980       .  S
O545        C554   1.274       .  A
O546       Cu550   1.981   1_556  S
O546        C553   1.274       .  A
O547       Cu550   2.050       .  S
O547        C552   1.283       .  A
O548       Cu820   2.049   1_556  S
O548        C551   1.283       .  A
Cu549       O812   1.977   1_546  S
Cu549       O813   2.047   1_545  S
Cu549      Cu820   2.366   1_556  S
Cu550       O815   1.980       .  S
Cu550       O818   2.049   1_554  S
Cu550      Cu819   2.366   1_554  S
C551        C803   1.481       .  S
C552        C747   1.485       .  S
C553        C779   1.480       .  S
C554        C763   1.478       .  S
C555        C731   1.488       .  S
C555        N556   1.359       .  A
C555        N560   1.359       .  A
N556        C557   1.361       .  A
C557        C787   1.489       .  S
C557        N558   1.365       .  A
N558        C559   1.360       .  A
C559        N560   1.357       .  A
C561        C715   1.488       .  S
C561        N562   1.360       .  A
C561        N566   1.360       .  A
N562        C563   1.362       .  A
C563        C795   1.489       .  S
C563        N564   1.365       .  A
N564        C565   1.359       .  A
C565        N566   1.356       .  A
O567        C577   1.274       .  A
O568       Cu575   1.977       .  S
O568        C578   1.274       .  A
O569       Cu575   2.044       .  S
O569        C579   1.282       .  A
O570        C580   1.282       .  A
O571       Cu576   1.973       .  S
O571        C580   1.274       .  A
O572        C579   1.274       .  A
O573        C578   1.283       .  A
O574       Cu576   2.050       .  S
O574        C577   1.283       .  A
C577        C675   1.479       .  S
C578        C707   1.479       .  S
C579        C683   1.480       .  S
C580        C651   1.477       .  S
C581        C771   1.488       .  S
C581        N582   1.361       .  A
C581        N586   1.357       .  A
N582        C583   1.364       .  A
C583        C667   1.490       .  S
C583        N584   1.366       .  A
N584        C585   1.359       .  A
C585        C589   1.476       .  S
C585        N586   1.355       .  A
C587        C691   1.489       .  S
C587        N588   1.366       .  A
C587        N592   1.364       .  A
N588        C589   1.360       .  A
C589        N590   1.355       .  A
N590        C591   1.358       .  A
C591        C755   1.488       .  S
C591        N592   1.359       .  A
O593       Cu601   1.984       .  S
O593        C603   1.274       .  A
O594       Cu601   1.976       .  S
O594        C604   1.274       .  A
O595       Cu601   2.044       .  S
O595        C605   1.282       .  A
O596       Cu601   2.046       .  S
O596        C606   1.282       .  A
O597       Cu602   1.976       .  S
O597        C606   1.274       .  A
O598       Cu602   1.978       .  S
O598        C605   1.274       .  A
O599       Cu602   2.045       .  S
O599        C604   1.282       .  A
O600       Cu602   2.046       .  S
O600        C603   1.282       .  A
Cu601      Cu602   2.365       .  S
C603        C643   1.480       .  S
C604        C723   1.478       .  S
C605        C619   1.478       .  S
C606        C739   1.479       .  S
C607        C627   1.487       .  S
C607        N608   1.364       .  A
C607        N612   1.360       .  A
N608        C609   1.360       .  A
C609        C885   1.473   1_545  S
C609        N610   1.356       .  A
N610        C611   1.358       .  A
C611        C659   1.484       .  S
C611        N612   1.358       .  A
C613        C635   1.489       .  S
C613        N614   1.363       .  A
C613        N618   1.366       .  A
N614        C615   1.354       .  A
C615        C879   1.473       .  S
C615        N616   1.354       .  A
N616        C617   1.360       .  A
C617        C699   1.490       .  S
C617        N618   1.364       .  A
C619        C620   1.407       .  A
C619        C624   1.405       .  A
C620        C621   1.394       .  A
C620        H629   1.083       .  S
C621        C622   1.399       .  A
C621        H630   1.084       .  S
C622        C628   1.403       .  A
C622        C623   1.415       .  A
C623        C625   1.401       .  A
C623        C624   1.409       .  A
C624        H631   1.084       .  S
C625        C626   1.399       .  A
C625        H632   1.083       .  S
C626        C627   1.409       .  A
C626        H633   1.083       .  S
C627        C628   1.405       .  A
C628        H634   1.084       .  S
C635        C636   1.408       .  A
C635        C640   1.412       .  A
C636        C637   1.393       .  A
C636        H645   1.083       .  S
C637        C638   1.399       .  A
C637        H646   1.084       .  S
C638        C644   1.401       .  A
C638        C639   1.413       .  A
C639        C641   1.407       .  A
C639        C640   1.411       .  A
C640        H647   1.084       .  S
C641        C642   1.404       .  A
C641        H648   1.083       .  S
C642        C643   1.404       .  A
C642        H649   1.083       .  S
C643        C644   1.405       .  A
C644        H650   1.085       .  S
C651        C652   1.404       .  A
C651        C656   1.405       .  A
C652        C653   1.402       .  A
C652        H661   1.083       .  S
C653        C654   1.406       .  A
C653        H662   1.083       .  S
C654        C660   1.406       .  A
C654        C655   1.412       .  A
C655        C657   1.399       .  A
C655        C656   1.399       .  A
C656        H663   1.085       .  S
C657        C658   1.393       .  A
C657        H664   1.084       .  S
C658        C659   1.407       .  A
C658        H665   1.083       .  S
C659        C660   1.411       .  A
C660        H666   1.084       .  S
C667        C668   1.407       .  A
C667        C672   1.413       .  A
C668        C669   1.395       .  A
C668        H677   1.083       .  S
C669        C670   1.400       .  A
C669        H678   1.084       .  S
C670        C676   1.401       .  A
C670        C671   1.412       .  A
C671        C673   1.408       .  A
C671        C672   1.410       .  A
C672        H679   1.084       .  S
C673        C674   1.405       .  A
C673        H680   1.083       .  S
C674        C675   1.404       .  A
C674        H681   1.083       .  S
C675        C676   1.406       .  A
C676        H682   1.085       .  S
C683        C684   1.407       .  A
C683        C688   1.406       .  A
C684        C685   1.394       .  A
C684        H693   1.083       .  S
C685        C686   1.399       .  A
C685        H694   1.084       .  S
C686        C692   1.404       .  A
C686        C687   1.415       .  A
C687        C689   1.402       .  A
C687        C688   1.410       .  A
C688        H695   1.084       .  S
C689        C690   1.400       .  A
C689        H696   1.083       .  S
C690        C691   1.409       .  A
C690        H697   1.083       .  S
C691        C692   1.406       .  A
C692        H698   1.084       .  S
C699        C700   1.408       .  A
C699        C704   1.413       .  A
C700        C701   1.392       .  A
C700        H709   1.083       .  S
C701        C702   1.398       .  A
C701        H710   1.084       .  S
C702        C708   1.400       .  A
C702        C703   1.413       .  A
C703        C705   1.408       .  A
C703        C704   1.413       .  A
C704        H711   1.084       .  S
C705        C706   1.406       .  A
C705        H712   1.083       .  S
C706        C707   1.405       .  A
C706        H713   1.083       .  S
C707        C708   1.404       .  A
C708        H714   1.085       .  S
C715        C716   1.407       .  A
C715        C720   1.412       .  A
C716        C717   1.393       .  A
C716        H725   1.083       .  S
C717        C718   1.399       .  A
C717        H726   1.084       .  S
C718        C724   1.400       .  A
C718        C719   1.413       .  A
C719        C721   1.407       .  A
C719        C720   1.410       .  A
C720        H727   1.084       .  S
C721        C722   1.404       .  A
C721        H728   1.083       .  S
C722        C723   1.404       .  A
C722        H729   1.083       .  S
C723        C724   1.405       .  A
C724        H730   1.085       .  S
C731        C732   1.407       .  A
C731        C736   1.413       .  A
C732        C733   1.394       .  A
C732        H741   1.083       .  S
C733        C734   1.399       .  A
C733        H742   1.084       .  S
C734        C740   1.400       .  A
C734        C735   1.412       .  A
C735        C737   1.407       .  A
C735        C736   1.409       .  A
C736        H743   1.084       .  S
C737        C738   1.404       .  A
C737        H744   1.083       .  S
C738        C739   1.404       .  A
C738        H745   1.083       .  S
C739        C740   1.405       .  A
C740        H746   1.085       .  S
C747        C748   1.406       .  A
C747        C752   1.406       .  A
C748        C749   1.406       .  A
C748        H757   1.083       .  S
C749        C750   1.408       .  A
C749        H758   1.083       .  S
C750        C756   1.412       .  A
C750        C751   1.412       .  A
C751        C753   1.398       .  A
C751        C752   1.399       .  A
C752        H759   1.084       .  S
C753        C754   1.392       .  A
C753        H760   1.084       .  S
C754        C755   1.407       .  A
C754        H761   1.083       .  S
C755        C756   1.413       .  A
C756        H762   1.084       .  S
C763        C764   1.404       .  A
C763        C768   1.404       .  A
C764        C765   1.404       .  A
C764        H773   1.083       .  S
C765        C766   1.406       .  A
C765        H774   1.083       .  S
C766        C772   1.410       .  A
C766        C767   1.413       .  A
C767        C769   1.398       .  A
C767        C768   1.400       .  A
C768        H775   1.085       .  S
C769        C770   1.393       .  A
C769        H776   1.084       .  S
C770        C771   1.408       .  A
C770        H777   1.083       .  S
C771        C772   1.411       .  A
C772        H778   1.084       .  S
C779        C780   1.406       .  A
C779        C784   1.406       .  A
C780        C781   1.394       .  A
C780        H789   1.083       .  S
C781        C782   1.399       .  A
C781        H790   1.084       .  S
C782        C788   1.404       .  A
C782        C783   1.415       .  A
C783        C785   1.402       .  A
C783        C784   1.411       .  A
C784        H791   1.084       .  S
C785        C786   1.400       .  A
C785        H792   1.083       .  S
C786        C787   1.410       .  A
C786        H793   1.083       .  S
C787        C788   1.406       .  A
C788        H794   1.084       .  S
C795        C796   1.406       .  A
C795        C800   1.413       .  A
C796        C797   1.395       .  A
C796        H805   1.083       .  S
C797        C798   1.400       .  A
C797        H806   1.084       .  S
C798        C804   1.401       .  A
C798        C799   1.412       .  A
C799        C801   1.408       .  A
C799        C800   1.410       .  A
C800        H807   1.084       .  S
C801        C802   1.405       .  A
C801        H808   1.083       .  S
C802        C803   1.404       .  A
C802        H809   1.083       .  S
C803        C804   1.406       .  A
C804        H810   1.085       .  S
O811       Cu819   1.981       .  S
O811        C821   1.274       .  A
O812        C822   1.274       .  A
O813        C823   1.283       .  A
O814       Cu819   2.043   1_554  S
O814        C824   1.282       .  A
O815        C824   1.274       .  A
O816       Cu820   1.981   1_566  S
O816        C823   1.274       .  A
O817       Cu820   2.050   1_565  S
O817        C822   1.283       .  A
O818        C821   1.283       .  A
C821       C1073   1.481       .  S
C822       C1017   1.485       .  S
C823       C1049   1.480       .  S
C824       C1033   1.478       .  S
C825       C1001   1.488       .  S
C825        N826   1.359       .  A
C825        N830   1.359       .  A
N826        C827   1.361       .  A
C827       C1057   1.489       .  S
C827        N828   1.365       .  A
N828        C829   1.360       .  A
C829        N830   1.357       .  A
C831        C985   1.488       .  S
C831        N832   1.360       .  A
C831        N836   1.360       .  A
N832        C833   1.362       .  A
C833       C1065   1.489       .  S
C833        N834   1.365       .  A
N834        C835   1.359       .  A
C835        N836   1.356       .  A
O837        C847   1.274       .  A
O838       Cu845   1.977       .  S
O838        C848   1.274       .  A
O839       Cu845   2.044       .  S
O839        C849   1.282       .  A
O840        C850   1.282       .  A
O841       Cu846   1.973       .  S
O841        C850   1.274       .  A
O842        C849   1.274       .  A
O843        C848   1.283       .  A
O844       Cu846   2.050       .  S
O844        C847   1.283       .  A
C847        C945   1.479       .  S
C848        C977   1.479       .  S
C849        C953   1.480       .  S
C850        C921   1.477       .  S
C851       C1041   1.488       .  S
C851        N852   1.361       .  A
C851        N856   1.357       .  A
N852        C853   1.364       .  A
C853        C937   1.490       .  S
C853        N854   1.366       .  A
N854        C855   1.359       .  A
C855        C859   1.476       .  S
C855        N856   1.355       .  A
C857        C961   1.489       .  S
C857        N858   1.366       .  A
C857        N862   1.364       .  A
N858        C859   1.360       .  A
C859        N860   1.355       .  A
N860        C861   1.358       .  A
C861       C1025   1.488       .  S
C861        N862   1.359       .  A
O863       Cu871   1.984       .  S
O863        C873   1.274       .  A
O864       Cu871   1.976       .  S
O864        C874   1.274       .  A
O865       Cu871   2.044       .  S
O865        C875   1.282       .  A
O866       Cu871   2.046       .  S
O866        C876   1.282       .  A
O867       Cu872   1.976       .  S
O867        C876   1.274       .  A
O868       Cu872   1.978       .  S
O868        C875   1.274       .  A
O869       Cu872   2.045       .  S
O869        C874   1.282       .  A
O870       Cu872   2.046       .  S
O870        C873   1.282       .  A
Cu871      Cu872   2.365       .  S
C873        C913   1.480       .  S
C874        C993   1.478       .  S
C875        C889   1.478       .  S
C876       C1009   1.479       .  S
C877        C897   1.487       .  S
C877        N878   1.364       .  A
C877        N882   1.360       .  A
N878        C879   1.360       .  A
C879        N880   1.356       .  A
N880        C881   1.358       .  A
C881        C929   1.484       .  S
C881        N882   1.358       .  A
C883        C905   1.489       .  S
C883        N884   1.363       .  A
C883        N888   1.366       .  A
N884        C885   1.354       .  A
C885        N886   1.354       .  A
N886        C887   1.360       .  A
C887        C969   1.490       .  S
C887        N888   1.364       .  A
C889        C890   1.407       .  A
C889        C894   1.405       .  A
C890        C891   1.394       .  A
C890        H899   1.083       .  S
C891        C892   1.399       .  A
C891        H900   1.084       .  S
C892        C898   1.403       .  A
C892        C893   1.415       .  A
C893        C895   1.401       .  A
C893        C894   1.409       .  A
C894        H901   1.084       .  S
C895        C896   1.399       .  A
C895        H902   1.083       .  S
C896        C897   1.409       .  A
C896        H903   1.083       .  S
C897        C898   1.405       .  A
C898        H904   1.084       .  S
C905        C906   1.408       .  A
C905        C910   1.412       .  A
C906        C907   1.393       .  A
C906        H915   1.083       .  S
C907        C908   1.399       .  A
C907        H916   1.084       .  S
C908        C914   1.401       .  A
C908        C909   1.413       .  A
C909        C911   1.407       .  A
C909        C910   1.411       .  A
C910        H917   1.084       .  S
C911        C912   1.404       .  A
C911        H918   1.083       .  S
C912        C913   1.404       .  A
C912        H919   1.083       .  S
C913        C914   1.405       .  A
C914        H920   1.085       .  S
C921        C922   1.404       .  A
C921        C926   1.405       .  A
C922        C923   1.402       .  A
C922        H931   1.083       .  S
C923        C924   1.406       .  A
C923        H932   1.083       .  S
C924        C930   1.407       .  A
C924        C925   1.412       .  A
C925        C927   1.399       .  A
C925        C926   1.399       .  A
C926        H933   1.085       .  S
C927        C928   1.393       .  A
C927        H934   1.084       .  S
C928        C929   1.407       .  A
C928        H935   1.083       .  S
C929        C930   1.411       .  A
C930        H936   1.084       .  S
C937        C938   1.407       .  A
C937        C942   1.413       .  A
C938        C939   1.395       .  A
C938        H947   1.083       .  S
C939        C940   1.400       .  A
C939        H948   1.084       .  S
C940        C946   1.401       .  A
C940        C941   1.412       .  A
C941        C943   1.408       .  A
C941        C942   1.410       .  A
C942        H949   1.084       .  S
C943        C944   1.405       .  A
C943        H950   1.083       .  S
C944        C945   1.404       .  A
C944        H951   1.083       .  S
C945        C946   1.406       .  A
C946        H952   1.085       .  S
C953        C954   1.407       .  A
C953        C958   1.406       .  A
C954        C955   1.394       .  A
C954        H963   1.083       .  S
C955        C956   1.399       .  A
C955        H964   1.084       .  S
C956        C962   1.404       .  A
C956        C957   1.415       .  A
C957        C959   1.402       .  A
C957        C958   1.410       .  A
C958        H965   1.084       .  S
C959        C960   1.400       .  A
C959        H966   1.083       .  S
C960        C961   1.409       .  A
C960        H967   1.083       .  S
C961        C962   1.406       .  A
C962        H968   1.084       .  S
C969        C970   1.408       .  A
C969        C974   1.413       .  A
C970        C971   1.392       .  A
C970        H979   1.083       .  S
C971        C972   1.398       .  A
C971        H980   1.084       .  S
C972        C978   1.400       .  A
C972        C973   1.413       .  A
C973        C975   1.408       .  A
C973        C974   1.413       .  A
C974        H981   1.084       .  S
C975        C976   1.406       .  A
C975        H982   1.083       .  S
C976        C977   1.405       .  A
C976        H983   1.083       .  S
C977        C978   1.404       .  A
C978        H984   1.085       .  S
C985        C986   1.407       .  A
C985        C990   1.412       .  A
C986        C987   1.393       .  A
C986        H995   1.083       .  S
C987        C988   1.399       .  A
C987        H996   1.084       .  S
C988        C994   1.400       .  A
C988        C989   1.413       .  A
C989        C991   1.407       .  A
C989        C990   1.410       .  A
C990        H997   1.084       .  S
C991        C992   1.404       .  A
C991        H998   1.083       .  S
C992        C993   1.404       .  A
C992        H999   1.083       .  S
C993        C994   1.405       .  A
C994       H1000   1.085       .  S
C1001      C1002   1.407       .  A
C1001      C1006   1.413       .  A
C1002      C1003   1.394       .  A
C1002      H1011   1.083       .  S
C1003      C1004   1.399       .  A
C1003      H1012   1.084       .  S
C1004      C1010   1.400       .  A
C1004      C1005   1.412       .  A
C1005      C1007   1.407       .  A
C1005      C1006   1.409       .  A
C1006      H1013   1.084       .  S
C1007      C1008   1.404       .  A
C1007      H1014   1.083       .  S
C1008      C1009   1.404       .  A
C1008      H1015   1.083       .  S
C1009      C1010   1.405       .  A
C1010      H1016   1.085       .  S
C1017      C1018   1.406       .  A
C1017      C1022   1.406       .  A
C1018      C1019   1.406       .  A
C1018      H1027   1.083       .  S
C1019      C1020   1.408       .  A
C1019      H1028   1.083       .  S
C1020      C1026   1.412       .  A
C1020      C1021   1.412       .  A
C1021      C1023   1.398       .  A
C1021      C1022   1.399       .  A
C1022      H1029   1.084       .  S
C1023      C1024   1.392       .  A
C1023      H1030   1.084       .  S
C1024      C1025   1.407       .  A
C1024      H1031   1.083       .  S
C1025      C1026   1.413       .  A
C1026      H1032   1.084       .  S
C1033      C1034   1.404       .  A
C1033      C1038   1.404       .  A
C1034      C1035   1.404       .  A
C1034      H1043   1.083       .  S
C1035      C1036   1.406       .  A
C1035      H1044   1.083       .  S
C1036      C1042   1.410       .  A
C1036      C1037   1.413       .  A
C1037      C1039   1.398       .  A
C1037      C1038   1.400       .  A
C1038      H1045   1.085       .  S
C1039      C1040   1.393       .  A
C1039      H1046   1.084       .  S
C1040      C1041   1.408       .  A
C1040      H1047   1.083       .  S
C1041      C1042   1.411       .  A
C1042      H1048   1.084       .  S
C1049      C1050   1.406       .  A
C1049      C1054   1.406       .  A
C1050      C1051   1.394       .  A
C1050      H1059   1.083       .  S
C1051      C1052   1.399       .  A
C1051      H1060   1.084       .  S
C1052      C1058   1.404       .  A
C1052      C1053   1.415       .  A
C1053      C1055   1.402       .  A
C1053      C1054   1.411       .  A
C1054      H1061   1.084       .  S
C1055      C1056   1.400       .  A
C1055      H1062   1.083       .  S
C1056      C1057   1.410       .  A
C1056      H1063   1.083       .  S
C1057      C1058   1.406       .  A
C1058      H1064   1.084       .  S
C1065      C1066   1.406       .  A
C1065      C1070   1.413       .  A
C1066      C1067   1.395       .  A
C1066      H1075   1.083       .  S
C1067      C1068   1.400       .  A
C1067      H1076   1.084       .  S
C1068      C1074   1.401       .  A
C1068      C1069   1.412       .  A
C1069      C1071   1.408       .  A
C1069      C1070   1.410       .  A
C1070      H1077   1.084       .  S
C1071      C1072   1.405       .  A
C1071      H1078   1.083       .  S
C1072      C1073   1.404       .  A
C1072      H1079   1.083       .  S
C1073      C1074   1.406       .  A
C1074      H1080   1.085       .  S
