geometry optimzed in LAMMPS
_audit_creation_date              2020-11-30 
_audit_creation_method            'lammps2cif' 
_symmetry_space_group_name_H-M    'P1' 
_symmetry_Int_Tables_number       1 
_symmetry_cell_setting            triclinic 
loop_ 
_symmetry_equiv_pos_as_xyz 
  x,y,z 
_cell_length_a                    30.67213579 
_cell_length_b                    30.668065079478588 
_cell_length_c                    92.04690125910967 
_cell_angle_alpha                 89.96687581696868 
_cell_angle_beta                  90.02316491324312 
_cell_angle_gamma                 119.98365456927372 
loop_ 
_atom_site_label 
_atom_site_type_symbol 
_atom_site_fract_x 
_atom_site_fract_y 
_atom_site_fract_z 
_atom_site_charge 
O1          O  0.95099196  0.98019028  0.27207566    -0.72700
O2          O  0.96212927  0.99641462  0.22868589    -0.73700
O3          O  0.95710715  0.92332317  0.24862567    -0.62300
O4          O  0.95545617  0.05282888  0.25193659    -0.70700
O5          O  0.03896963  0.09498938  0.25300023    -0.70300
O6          O  0.04026958  0.96492160  0.25094675    -0.61500
O7          O  0.04551384  0.03608033  0.23041867    -0.74000
O8          O  0.03405917  0.02358542  0.27373430    -0.72800
Cu9        Cu  0.95348422  0.98669749  0.25030108     1.04600
Cu10       Cu  0.04258397  0.03137425  0.25213094     1.04300
C11         C  0.99091359  0.99928353  0.27981026     0.93500
C12         C  0.00560766  0.01881004  0.22274763     0.92600
C13         C  0.99891736  0.92369618  0.24914178     0.84800
C14         C  0.99704129  0.09440924  0.25248426     0.91000
O15         O  0.03456308  0.59135632  0.24899998    -0.72700
O16         O  0.03105516  0.45943961  0.25098995    -0.73700
O17         O  0.03531431  0.52337869  0.22824350    -0.62300
O18         O  0.02963260  0.52701921  0.27181524    -0.70700
O19         O  0.94656474  0.48638302  0.27098891    -0.70300
O20         O  0.95187574  0.48485728  0.22737326    -0.61500
O21         O  0.94767346  0.41913900  0.24984740    -0.74000
O22         O  0.95122470  0.55201788  0.24854883    -0.72800
Cu23       Cu  0.03548446  0.52667637  0.25006130     1.04600
Cu24       Cu  0.94638954  0.48416031  0.24916871     1.04300
C25         C  0.99373960  0.59280513  0.24842956     0.93500
C26         C  0.98895821  0.41840816  0.25042657     0.92600
C27         C  0.99438646  0.50330853  0.22094824     0.84800
C28         C  0.98722037  0.50736742  0.27838030     0.91000
O29         O  0.54735759  0.96163367  0.24846574    -0.72700
O30         O  0.54255380  0.08980844  0.25006240    -0.73700
O31         O  0.54334012  0.02232758  0.27105260    -0.62300
O32         O  0.54599954  0.02896368  0.22750054    -0.70700
O33         O  0.46239587  0.98691453  0.22714386    -0.70300
O34         O  0.46021523  0.97778757  0.27054538    -0.61500
O35         O  0.45900367  0.04630988  0.25009521    -0.74000
O36         O  0.46388760  0.91798785  0.24749958    -0.72800
Cu37       Cu  0.54771964  0.02719001  0.24930213     1.04600
Cu38       Cu  0.45845951  0.98064305  0.24882563     1.04300
C39         C  0.50636062  0.91960488  0.24752007     0.93500
C40         C  0.50020784  0.08837256  0.25014637     0.92600
C41         C  0.50133855  0.99902774  0.27775195     0.84800
C42         C  0.50452059  0.00979193  0.22049306     0.91000
O43         O  0.54516451  0.58911660  0.25001603    -0.72700
O44         O  0.54136750  0.45650783  0.25221214    -0.73700
O45         O  0.54348419  0.51937006  0.22941345    -0.62300
O46         O  0.54296939  0.52574944  0.27304321    -0.70700
O47         O  0.45939575  0.48706816  0.27286830    -0.70300
O48         O  0.45990755  0.47999049  0.22940660    -0.61500
O49         O  0.45787715  0.41704819  0.25226007    -0.74000
O50         O  0.46167779  0.54945324  0.24982224    -0.72800
Cu51       Cu  0.54620439  0.52411311  0.25121820     1.04600
Cu52       Cu  0.45682609  0.48194479  0.25112566     1.04300
C53         C  0.50409222  0.59019424  0.24925228     0.93500
C54         C  0.49889115  0.41576386  0.25218321     0.92600
C55         C  0.50163347  0.49853894  0.22256831     0.84800
C56         C  0.50106288  0.50768840  0.27977932     0.91000
O57         O  0.02844531  0.93232204  0.41755886    -0.72700
O58         O  0.89649088  0.92986766  0.41702835    -0.73700
O59         O  0.96475947  0.93393763  0.39550147    -0.62300
O60         O  0.96041187  0.92854899  0.43907451    -0.70700
O61         O  0.00217444  0.01212436  0.43977893    -0.70300
O62         O  0.00404382  0.01744579  0.39634585    -0.61500
O63         O  0.93682608  0.01329297  0.41814656    -0.74000
O64         O  0.06902515  0.01587681  0.41795363    -0.72800
Cu65       Cu  0.96108456  0.92823367  0.41725363     1.04600
Cu66       Cu  0.00440992  0.01759279  0.41808471     1.04300
C67         C  0.06953599  0.97446705  0.41790427     0.93500
C68         C  0.89575246  0.97110579  0.41770178     0.92600
C69         C  0.98537121  0.97658078  0.38907557     0.84800
C70         C  0.98067051  0.96965206  0.44627820     0.91000
O71         O  0.04008630  0.47616357  0.41710462    -0.72700
O72         O  0.91270839  0.48241848  0.41718748    -0.73700
O73         O  0.97507371  0.47727847  0.39531103    -0.62300
O74         O  0.97766161  0.48158341  0.43890001    -0.70700
O75         O  0.02245349  0.56505661  0.43814481    -0.70300
O76         O  0.01971742  0.56072508  0.39460530    -0.61500
O77         O  0.95710513  0.56570595  0.41639266    -0.74000
O78         O  0.08477050  0.55963693  0.41643890    -0.72800
Cu79       Cu  0.97480982  0.47645091  0.41713011     1.04600
Cu80       Cu  0.02254306  0.56569322  0.41635220     1.04300
C81         C  0.08253546  0.51693467  0.41704851     0.93500
C82         C  0.91464048  0.52499842  0.41679524     0.92600
C83         C  0.99732683  0.51831393  0.38808394     0.84800
C84         C  0.00042969  0.52406628  0.44538569     0.91000
O85         O  0.43910257  0.01443658  0.41651229    -0.72700
O86         O  0.56707950  0.00899983  0.41523201    -0.73700
O87         O  0.50243891  0.01445315  0.39420840    -0.62300
O88         O  0.50339648  0.00881323  0.43771704    -0.70700
O89         O  0.45723733  0.92544159  0.43682660    -0.70300
O90         O  0.46078925  0.93087240  0.39329232    -0.61500
O91         O  0.52316850  0.92544110  0.41509278    -0.74000
O92         O  0.39534638  0.93115857  0.41483182    -0.72800
Cu93       Cu  0.50462305  0.01460329  0.41597599     1.04600
Cu94       Cu  0.45760691  0.92530346  0.41501295     1.04300
C95         C  0.39696653  0.97354479  0.41549158     0.93500
C96         C  0.56534646  0.96650953  0.41481675     0.92600
C97         C  0.48129894  0.97355872  0.38691676     0.84800
C98         C  0.47961634  0.96625362  0.44413354     0.91000
O99         O  0.51149643  0.55283020  0.39599689    -0.72700
O100        O  0.51510994  0.55291101  0.43959469    -0.73700
O101        O  0.58052363  0.55715526  0.41731884    -0.62300
O102        O  0.44592075  0.54847501  0.41842561    -0.70700
O103        O  0.40774283  0.46524681  0.41803853    -0.70300
O104        O  0.54251314  0.47364599  0.41718210    -0.61500
O105        O  0.47686939  0.46950539  0.43956210    -0.74000
O106        O  0.47373379  0.46943869  0.39589474    -0.72800
Cu107      Cu  0.51453896  0.55571851  0.41783002     1.04600
Cu108      Cu  0.47389514  0.46652778  0.41768709     1.04300
C109        C  0.49166340  0.51117108  0.38905823     0.93500
C110        C  0.49641129  0.51121586  0.44647854     0.92600
C111        C  0.58264914  0.51664609  0.41698773     0.84800
C112        C  0.40546891  0.50567543  0.41846766     0.91000
O113        O  0.96584337  0.04545409  0.08353885    -0.72700
O114        O  0.96753068  0.91599087  0.08683535    -0.73700
O115        O  0.96936590  0.98718857  0.10698080    -0.62300
O116        O  0.96427350  0.97463977  0.06343816    -0.70700
O117        O  0.04774310  0.01795593  0.06267479    -0.70300
O118        O  0.05259866  0.02864803  0.10611543    -0.61500
O119        O  0.05088661  0.95818302  0.08568763    -0.74000
O120        O  0.04933210  0.08789856  0.08299036    -0.72800
Cu121      Cu  0.96383291  0.97928215  0.08524114     1.04600
Cu122      Cu  0.05302303  0.02456789  0.08435782     1.04300
C123        C  0.00730502  0.08709407  0.08260981     0.93500
C124        C  0.00947021  0.91655838  0.08674511     0.92600
C125        C  0.01190182  0.01041491  0.11345931     0.84800
C126        C  0.00530541  0.99453726  0.05619122     0.91000
O127        O  0.04634448  0.51966519  0.10476899    -0.72700
O128        O  0.05148772  0.52421851  0.06096528    -0.73700
O129        O  0.04989826  0.58778016  0.08331704    -0.62300
O130        O  0.04843603  0.45625172  0.08235578    -0.70700
O131        O  0.96503204  0.41531927  0.08126952    -0.70300
O132        O  0.96634703  0.54667068  0.08283880    -0.61500
O133        O  0.96792101  0.48448607  0.06025519    -0.74000
O134        O  0.96311183  0.47788611  0.10381209    -0.72800
Cu135      Cu  0.05199087  0.52340246  0.08287637     1.04600
Cu136      Cu  0.96273903  0.47964073  0.08201076     1.04300
C137        C  0.00370106  0.49817936  0.11124165     0.93500
C138        C  0.01037270  0.50495035  0.05376254     0.92600
C139        C  0.00830320  0.58787168  0.08354030     0.84800
C140        C  0.00655662  0.41504428  0.08138217     0.91000
O141        O  0.53140132  0.01837924  0.06004640    -0.72700
O142        O  0.53873037  0.02640258  0.10347905    -0.73700
O143        O  0.53877497  0.95880057  0.08227335    -0.62300
O144        O  0.53138153  0.08572532  0.08110797    -0.70700
O145        O  0.44802814  0.04095648  0.08206981    -0.70300
O146        O  0.45550202  0.91396875  0.08368187    -0.61500
O147        O  0.45560772  0.98218114  0.10475553    -0.74000
O148        O  0.44820502  0.97257444  0.06111175    -0.72800
Cu149      Cu  0.53791368  0.02388748  0.08171858     1.04600
Cu150      Cu  0.44889636  0.97586739  0.08298157     1.04300
C151        C  0.48890059  0.99326519  0.05369069     0.93500
C152        C  0.49846027  0.00615478  0.11103959     0.92600
C153        C  0.49815878  0.91623747  0.08275115     0.84800
C154        C  0.48863690  0.08343138  0.08118014     0.91000
O155        O  0.53891560  0.52030412  0.06259093    -0.72700
O156        O  0.53678961  0.51950488  0.10625042    -0.73700
O157        O  0.53432505  0.45297817  0.08440543    -0.62300
O158        O  0.54162063  0.58727471  0.08425983    -0.70700
O159        O  0.45818212  0.54917492  0.08441282    -0.70300
O160        O  0.45091469  0.41494234  0.08354695    -0.61500
O161        O  0.45352849  0.48011765  0.10588793    -0.74000
O162        O  0.45553379  0.48417206  0.06227741    -0.72800
Cu163      Cu  0.54082871  0.52138000  0.08442503     1.04600
Cu164      Cu  0.45163198  0.48076322  0.08405972     1.04300
C165        C  0.49756559  0.50285263  0.05558668     0.93500
C166        C  0.49474355  0.49901181  0.11301336     0.92600
C167        C  0.49147562  0.41282514  0.08363738     0.84800
C168        C  0.50107514  0.58940503  0.08402390     0.91000
O169        O  0.08414653  0.04322267  0.91749290    -0.72700
O170        O  0.95402442  0.91220991  0.91812960    -0.73700
O171        O  0.01878814  0.97718763  0.89598183    -0.62300
O172        O  0.01928330  0.97875021  0.93961097    -0.70700
O173        O  0.97735688  0.01998984  0.93941655    -0.70300
O174        O  0.97658408  0.01826212  0.89589549    -0.61500
O175        O  0.91163616  0.95334339  0.91799781    -0.74000
O176        O  0.04206902  0.08468036  0.91733106    -0.72800
Cu177      Cu  0.02048501  0.97637472  0.91779777     1.04600
Cu178      Cu  0.97541578  0.02046518  0.91764104     1.04300
C179        C  0.08370354  0.08463670  0.91739081     0.93500
C180        C  0.91231438  0.91203836  0.91845397     0.92600
C181        C  0.99831511  0.99834047  0.88899068     0.84800
C182        C  0.99810446  0.99940135  0.94649617     0.91000
O183        O  0.94980955  0.42074296  0.91619791    -0.72700
O184        O  0.07917782  0.55329968  0.91403939    -0.73700
O185        O  0.02029397  0.48741142  0.93687798    -0.62300
O186        O  0.00924056  0.48632876  0.89345206    -0.70700
O187        O  0.96772781  0.52810680  0.89488565    -0.70300
O188        O  0.97543768  0.52594890  0.93841689    -0.61500
O189        O  0.03599454  0.59335286  0.91597704    -0.74000
O190        O  0.90696506  0.46139254  0.91719122    -0.72800
Cu191      Cu  0.01614821  0.48552307  0.91509544     1.04600
Cu192      Cu  0.97007346  0.52861934  0.91668987     1.04300
C193        C  0.90798356  0.42028474  0.91712923     0.93500
C194        C  0.07781568  0.59428054  0.91438941     0.92600
C195        C  0.99872058  0.50597546  0.94448787     0.84800
C196        C  0.98755040  0.50773242  0.88727336     0.91000
O197        O  0.44604183  0.92161814  0.91401402    -0.72700
O198        O  0.57841186  0.05051615  0.91672447    -0.73700
O199        O  0.50889398  0.98063139  0.93710403    -0.62300
O200        O  0.51485019  0.99072211  0.89362847    -0.70700
O201        O  0.47377891  0.03313404  0.89409500    -0.70300
O202        O  0.46957635  0.02485192  0.93773891    -0.61500
O203        O  0.53802347  0.09362784  0.91704256    -0.74000
O204        O  0.40576781  0.96487665  0.91473382    -0.72800
Cu205      Cu  0.51356544  0.98448306  0.91534244     1.04600
Cu206      Cu  0.47049709  0.03074912  0.91593330     1.04300
C207        C  0.40508942  0.92298695  0.91378217     0.93500
C208        C  0.57905601  0.09245082  0.91748739     0.92600
C209        C  0.48780713  0.00072358  0.94426460     0.84800
C210        C  0.49378290  0.01186708  0.88696199     0.91000
O211        O  0.47750261  0.51538137  0.93915236    -0.72700
O212        O  0.48149160  0.51601542  0.89547027    -0.73700
O213        O  0.41451802  0.45020089  0.91691968    -0.62300
O214        O  0.54440981  0.58156940  0.91779469    -0.70700
O215        O  0.58709747  0.54068294  0.91793904    -0.70300
O216        O  0.45691094  0.40912548  0.91770398    -0.61500
O217        O  0.52308221  0.47436376  0.89606628    -0.74000
O218        O  0.52152939  0.47580277  0.93962883    -0.72800
Cu219      Cu  0.47798460  0.51721262  0.91729979     1.04600
Cu220      Cu  0.52357377  0.47351142  0.91784218     1.04300
C221        C  0.49969582  0.49623593  0.94623768     0.93500
C222        C  0.50258246  0.49483462  0.88881060     0.92600
C223        C  0.41513279  0.40888294  0.91734209     0.84800
C224        C  0.58619332  0.58187108  0.91820226     0.91000
O225        O  0.01708905  0.01206092  0.56197231    -0.72700
O226        O  0.02529425  0.01599934  0.60542256    -0.73700
O227        O  0.08525825  0.01181409  0.58257049    -0.62300
O228        O  0.95653986  0.01576129  0.58461638    -0.70700
O229        O  0.91322358  0.93227684  0.58523486    -0.70300
O230        O  0.04168306  0.92835536  0.58352764    -0.61500
O231        O  0.98186083  0.93260129  0.60615572    -0.74000
O232        O  0.97397402  0.92854843  0.56261724    -0.72800
Cu233      Cu  0.02249839  0.01683109  0.58364905     1.04600
Cu234      Cu  0.97607999  0.92754169  0.58442540     1.04300
C235        C  0.99503867  0.96970877  0.55542386     0.93500
C236        C  0.00583243  0.97498136  0.61266244     0.92600
C237        C  0.08369710  0.96939783  0.58266401     0.84800
C238        C  0.91448474  0.97453210  0.58488305     0.91000
O239        O  0.04987287  0.56955323  0.56136036    -0.72700
O240        O  0.04883446  0.56796788  0.60506656    -0.73700
O241        O  0.11630436  0.57144446  0.58321082    -0.62300
O242        O  0.98298088  0.56634165  0.58314634    -0.70700
O243        O  0.94363184  0.48281775  0.58245829    -0.70300
O244        O  0.07694571  0.48818753  0.58313248    -0.61500
O245        O  0.00832342  0.48433303  0.60465083    -0.74000
O246        O  0.01133440  0.48611821  0.56110191    -0.72800
Cu247      Cu  0.05097076  0.57177014  0.58321650     1.04600
Cu248      Cu  0.00881855  0.48248444  0.58284930     1.04300
C249        C  0.03082835  0.52806884  0.55434165     0.93500
C250        C  0.02743596  0.52569800  0.61168791     0.92600
C251        C  0.11786678  0.53061067  0.58315575     0.84800
C252        C  0.94235956  0.52381894  0.58256122     0.91000
O253        O  0.51348600  0.00370586  0.55991697    -0.72700
O254        O  0.51815229  0.01132838  0.60343289    -0.73700
O255        O  0.58212394  0.00856164  0.58159870    -0.62300
O256        O  0.45037271  0.00674075  0.58188031    -0.70700
O257        O  0.40954785  0.92332567  0.58300109    -0.70300
O258        O  0.54131673  0.92525895  0.58306734    -0.61500
O259        O  0.47702673  0.92829192  0.60475522    -0.74000
O260        O  0.47340242  0.92048790  0.56109873    -0.72800
Cu261      Cu  0.51753643  0.01045418  0.58164564     1.04600
Cu262      Cu  0.47400166  0.92144170  0.58299971     1.04300
C263        C  0.49230096  0.96089618  0.55357159     0.93500
C264        C  0.49772606  0.97109294  0.61106501     0.92600
C265        C  0.58256180  0.96715871  0.58227667     0.84800
C266        C  0.40921037  0.96480447  0.58274717     0.91000
O267        O  0.54634782  0.55716254  0.56261497    -0.72700
O268        O  0.54314331  0.55326603  0.60634964    -0.73700
O269        O  0.60963777  0.55438461  0.58465907    -0.62300
O270        O  0.48101186  0.55743669  0.58418875    -0.70700
O271        O  0.43753936  0.47382641  0.58381122    -0.70300
O272        O  0.56726393  0.47079760  0.58423349    -0.61500
O273        O  0.50064607  0.46989173  0.60565368    -0.74000
O274        O  0.50386766  0.47356916  0.56218702    -0.72800
Cu275      Cu  0.54658183  0.55846520  0.58447729     1.04600
Cu276      Cu  0.50080731  0.46908622  0.58393608     1.04300
C277        C  0.52556831  0.51576426  0.55553766     0.93500
C278        C  0.52113321  0.51083392  0.61291587     0.92600
C279        C  0.60894394  0.51242636  0.58462350     0.84800
C280        C  0.43906351  0.51627254  0.58402979     0.91000
O281        O  0.09451368  0.04145486  0.75101675    -0.72700
O282        O  0.96691883  0.90715928  0.75147257    -0.73700
O283        O  0.03053048  0.97265381  0.72948301    -0.62300
O284        O  0.03144248  0.97651218  0.77306327    -0.70700
O285        O  0.98538302  0.01395905  0.77252978    -0.70300
O286        O  0.98659300  0.01181268  0.72898879    -0.61500
O287        O  0.92252257  0.94621498  0.75072408    -0.74000
O288        O  0.04952949  0.07990377  0.75071764    -0.72800
Cu289      Cu  0.03240834  0.97305838  0.75129098     1.04600
Cu290      Cu  0.98446032  0.01428989  0.75073860     1.04300
C291        C  0.09209965  0.08187087  0.75106503     0.93500
C292        C  0.92455785  0.90563222  0.75071974     0.92600
C293        C  0.00828565  0.99150568  0.72225633     0.84800
C294        C  0.00891986  0.99631757  0.77962682     0.91000
O295        O  0.01794274  0.48835846  0.72785050    -0.72700
O296        O  0.01890900  0.49297347  0.77141256    -0.73700
O297        O  0.95212774  0.42632149  0.75015681    -0.62300
O298        O  0.08466795  0.55505131  0.74917215    -0.70700
O299        O  0.04477671  0.59865544  0.74871390    -0.70300
O300        O  0.91230088  0.47004416  0.74916700    -0.61500
O301        O  0.97820623  0.53582200  0.77077428    -0.74000
O302        O  0.97894480  0.53285412  0.72721765    -0.72800
Cu303      Cu  0.01980662  0.48913837  0.74967994     1.04600
Cu304      Cu  0.97715168  0.53584848  0.74896777     1.04300
C305        C  0.99834150  0.50991941  0.72065922     0.93500
C306        C  0.99879795  0.51523576  0.77795925     0.92600
C307        C  0.91135807  0.42796160  0.74964064     0.84800
C308        C  0.08566267  0.59716600  0.74858880     0.91000
O309        O  0.54552264  0.09571932  0.74815921    -0.72700
O310        O  0.41510751  0.96453877  0.74809007    -0.73700
O311        O  0.47768981  0.03195928  0.76997209    -0.62300
O312        O  0.48213946  0.02810879  0.72643083    -0.70700
O313        O  0.52593064  0.98847518  0.72777479    -0.70300
O314        O  0.51904496  0.98987976  0.77139308    -0.61500
O315        O  0.45729711  0.92321496  0.74920609    -0.74000
O316        O  0.58747541  0.05462319  0.75015428    -0.72800
Cu317      Cu  0.47869203  0.03155406  0.74813920     1.04600
Cu318      Cu  0.52391534  0.98760193  0.74968100     1.04300
C319        C  0.58728646  0.09599888  0.74901892     0.93500
C320        C  0.41569707  0.92318961  0.74839305     0.92600
C321        C  0.49707622  0.01102388  0.77754472     0.84800
C322        C  0.50496600  0.00796279  0.72023216     0.91000
O323        O  0.46055600  0.40812964  0.75176806    -0.72700
O324        O  0.59436495  0.53573739  0.75053248    -0.73700
O325        O  0.52786691  0.47528604  0.77290860    -0.62300
O326        O  0.52761033  0.46871936  0.72938261    -0.70700
O327        O  0.48745465  0.51214354  0.72840028    -0.70300
O328        O  0.48821619  0.51919371  0.77189519    -0.61500
O329        O  0.55498973  0.57978458  0.74943142    -0.74000
O330        O  0.42131960  0.45236579  0.75075876    -0.72800
Cu331      Cu  0.52896259  0.47039628  0.75118724     1.04600
Cu332      Cu  0.48672127  0.51750454  0.75008903     1.04300
C333        C  0.41990008  0.41011928  0.75160682     0.93500
C334        C  0.59571952  0.57795240  0.74957831     0.92600
C335        C  0.50743639  0.49760732  0.77924001     0.84800
C336        C  0.50731716  0.48927845  0.72205975     0.91000
C337        C  0.77987018  0.32400027  0.73973016    -0.22200
C338        C  0.77059978  0.28943150  0.75090710     0.09700
C339        C  0.80745546  0.30047494  0.76165025     0.10100
C340        C  0.85319102  0.34608390  0.76092986    -0.17200
C341        C  0.86270773  0.38070456  0.74970258    -0.27600
C342        C  0.82575077  0.36937417  0.73887275     0.18500
C343        C  0.72349814  0.24030124  0.75054124     0.12400
C344        C  0.79840019  0.26408047  0.77383178    -0.11900
H345        H  0.88159893  0.35491591  0.76919806     0.12700
C346        C  0.83411352  0.40272599  0.72589076    -0.22800
H347        H  0.75164076  0.31479116  0.73137519     0.08400
C348        C  0.67819435  0.23382950  0.75632595     0.04700
C349        C  0.63461878  0.18631417  0.75554048    -0.20000
C350        C  0.63522605  0.14490969  0.74913074    -0.12300
C351        C  0.68118878  0.15203707  0.74316566     0.13400
C352        C  0.72451747  0.19963996  0.74405722    -0.22700
C353        C  0.67606414  0.27695417  0.76342750    -0.05800
H354        H  0.59992380  0.18137141  0.76015622     0.14900
C355        C  0.68710382  0.11209250  0.73532390    -0.16000
H356        H  0.75961192  0.20532338  0.73950486     0.09300
H357        H  0.80653338  0.41612939  0.72609805     0.07100
H358        H  0.82849723  0.38081523  0.71577256     0.08300
H359        H  0.87248602  0.43586811  0.72536387     0.07400
H360        H  0.79227110  0.22786651  0.76933107     0.02200
H361        H  0.76462503  0.25717970  0.78010576     0.02700
H362        H  0.83087152  0.27880779  0.78141674     0.06200
H363        H  0.63772420  0.26540544  0.76751348     0.05200
H364        H  0.68682680  0.30787165  0.75546053    -0.00600
H365        H  0.70250062  0.29117615  0.77276389     0.00900
H366        H  0.70134403  0.12537014  0.72416254     0.04600
H367        H  0.65229455  0.07567981  0.73417870     0.06500
H368        H  0.71491416  0.10544422  0.74117942     0.07400
C369        C  0.28411547  0.81935232  0.73832018    -0.22200
C370        C  0.27573577  0.78339882  0.74896636     0.09700
C371        C  0.31388622  0.79259751  0.75909315     0.10100
C372        C  0.35962179  0.83832388  0.75848017    -0.17200
C373        C  0.36782956  0.87490686  0.74797708    -0.27600
C374        C  0.32988280  0.86482748  0.73756457     0.18500
C375        C  0.22696011  0.73586626  0.74903331     0.12400
C376        C  0.30614523  0.75423533  0.77053254    -0.11900
H377        H  0.38879347  0.84594576  0.76638591     0.12700
C378        C  0.33673579  0.89985079  0.72515940    -0.22800
H379        H  0.25487511  0.81152550  0.73041131     0.08400
C380        C  0.18532454  0.73122021  0.75683168     0.04700
C381        C  0.13962117  0.68552162  0.75638142    -0.20000
C382        C  0.13436640  0.64475357  0.74805900    -0.12300
C383        C  0.17567034  0.65056195  0.73963609     0.13400
C384        C  0.22178266  0.69569524  0.74054764    -0.22700
C385        C  0.18914791  0.77458123  0.76553611    -0.05800
H386        H  0.10790948  0.68147249  0.76266112     0.14900
C387        C  0.17220447  0.61167205  0.72894292    -0.16000
H388        H  0.25362954  0.70021060  0.73423190     0.09300
H389        H  0.30906848  0.91298035  0.72616724     0.07100
H390        H  0.33017583  0.87939786  0.71470837     0.08300
H391        H  0.37494655  0.93311469  0.72460529     0.07400
H392        H  0.29868336  0.71860527  0.76525875     0.02200
H393        H  0.27359295  0.74673367  0.77749987     0.02700
H394        H  0.33974570  0.76741195  0.77761261     0.06200
H395        H  0.15301229  0.76464617  0.77096432     0.05200
H396        H  0.19929533  0.80717165  0.75826027    -0.00600
H397        H  0.21850568  0.78575083  0.77403381     0.00900
H398        H  0.18524152  0.62952040  0.71811367     0.04600
H399        H  0.13350671  0.57991402  0.72737273     0.06500
H400        H  0.19676686  0.59675155  0.73256565     0.07400
C401        C  0.73162071  0.67688071  0.74118886    -0.22200
C402        C  0.73723989  0.71656720  0.74999983     0.09700
C403        C  0.69622071  0.71109677  0.75830637     0.10100
C404        C  0.65036955  0.66559366  0.75772897    -0.17200
C405        C  0.64462857  0.62534933  0.74906723    -0.27600
C406        C  0.68567597  0.63143659  0.74045184     0.18500
C407        C  0.78605484  0.76416102  0.75003858     0.12400
C408        C  0.70109598  0.75310708  0.76788886    -0.11900
H409        H  0.61902535  0.66108676  0.76428782     0.12700
C410        C  0.68228092  0.59225782  0.72988748    -0.22800
H411        H  0.76314528  0.68178106  0.73463689     0.08400
C412        C  0.82590072  0.77109952  0.75918662     0.04700
C413        C  0.87116119  0.81740143  0.75900365    -0.20000
C414        C  0.87742933  0.85663009  0.74977151    -0.12300
C415        C  0.83809028  0.84849392  0.74007697     0.13400
C416        C  0.79254663  0.80271475  0.74059135    -0.22700
C417        C  0.82029850  0.72979158  0.76921580    -0.05800
H418        H  0.90142335  0.82333385  0.76628656     0.14900
C419        C  0.84324963  0.88587618  0.72856774    -0.16000
H420        H  0.76210119  0.79660271  0.73334779     0.09300
H421        H  0.70820531  0.57877959  0.73335005     0.07100
H422        H  0.69365833  0.60930170  0.71890764     0.08300
H423        H  0.64394576  0.55949416  0.72878706     0.07400
H424        H  0.71096560  0.78693754  0.76120364     0.02200
H425        H  0.73106894  0.76257762  0.77609276     0.02700
H426        H  0.66548112  0.74250799  0.77373352     0.06200
H427        H  0.85491763  0.74143975  0.77571305     0.05200
H428        H  0.81261384  0.69609086  0.76277147    -0.00600
H429        H  0.78858413  0.71963770  0.77683481     0.00900
H430        H  0.83332141  0.86695158  0.71781085     0.04600
H431        H  0.88191437  0.91820475  0.72750303     0.06500
H432        H  0.81712796  0.90012339  0.73098125     0.07400
C433        C  0.31405705  0.27858638  0.76092806    -0.22200
C434        C  0.27775314  0.27261570  0.75067168     0.09700
C435        C  0.28724289  0.31257560  0.74121857     0.10100
C436        C  0.33363014  0.35752518  0.74203913    -0.17200
C437        C  0.37070430  0.36319621  0.75205553    -0.27600
C438        C  0.36022190  0.32360953  0.76190254     0.18500
C439        C  0.22978039  0.22423126  0.75026120     0.12400
C440        C  0.24863959  0.30752169  0.73021129    -0.11900
H441        H  0.34141069  0.38800997  0.73461222     0.12700
C442        C  0.39553241  0.32791616  0.77394651    -0.22800
H443        H  0.30599302  0.24799926  0.76835865     0.08400
C444        C  0.22459059  0.18334762  0.74193760     0.04700
C445        C  0.17918605  0.13735904  0.74247592    -0.20000
C446        C  0.13908792  0.13116017  0.75129262    -0.12300
C447        C  0.14501819  0.17203345  0.75996150     0.13400
C448        C  0.19000068  0.21833011  0.75907077    -0.22700
C449        C  0.26709773  0.18826768  0.73257622    -0.05800
H450        H  0.17487115  0.10609362  0.73591342     0.14900
C451        C  0.10646294  0.16791420  0.77088869    -0.16000
H452        H  0.19479940  0.24967938  0.76569248     0.09300
H453        H  0.40834411  0.30029613  0.77213381     0.07100
H454        H  0.37538103  0.31946441  0.78450395     0.08300
H455        H  0.42891697  0.36595914  0.77495413     0.07400
H456        H  0.21353321  0.29993638  0.73584490     0.02200
H457        H  0.24011813  0.27595823  0.72269412     0.02700
H458        H  0.26214398  0.34233135  0.72364555     0.06200
H459        H  0.25678984  0.15267768  0.72675846     0.05200
H460        H  0.30053055  0.19805114  0.73943677    -0.00600
H461        H  0.27711316  0.21830304  0.72435748     0.00900
H462        H  0.12468916  0.18058171  0.78168434     0.04600
H463        H  0.07487194  0.12910641  0.77241513     0.06500
H464        H  0.09123250  0.19246717  0.76751896     0.07400
C465        C  0.46725050  0.47222433  0.68251605    -0.22200
C466        C  0.51419864  0.49474359  0.67559315     0.09700
C467        C  0.55856610  0.51363910  0.68394533     0.10100
C468        C  0.55491295  0.50944173  0.69912702    -0.17200
C469        C  0.50801780  0.48790519  0.70609511    -0.27600
C470        C  0.46351021  0.46835367  0.69769861     0.18500
C471        C  0.51595573  0.49848103  0.65956643     0.12400
C472        C  0.60970164  0.53943923  0.67686728    -0.11900
H473        H  0.58888592  0.52455925  0.70561990     0.12700
C474        C  0.41158754  0.44210616  0.70431817    -0.22800
H475        H  0.43331114  0.45744154  0.67601456     0.08400
C476        C  0.51747414  0.46150085  0.65086239     0.04700
C477        C  0.51970031  0.46699232  0.63571111    -0.20000
C478        C  0.51968616  0.50825385  0.62902325    -0.12300
C479        C  0.51651158  0.54450027  0.63782570     0.13400
C480        C  0.51506421  0.53924212  0.65300981    -0.22700
C481        C  0.51583180  0.41584949  0.65756411    -0.05800
H482        H  0.52149271  0.43880586  0.62904359     0.14900
C483        C  0.51252006  0.58754557  0.63136564    -0.16000
H484        H  0.51290007  0.56689651  0.65984550     0.09300
H485        H  0.38960551  0.40353381  0.69975700     0.07100
H486        H  0.39200847  0.46330438  0.70167238     0.08300
H487        H  0.41200230  0.43831725  0.71627422     0.07400
H488        H  0.61478057  0.57271526  0.67066051     0.02200
H489        H  0.61332157  0.51320171  0.66933957     0.02700
H490        H  0.64042966  0.55251806  0.68501821     0.06200
H491        H  0.51696355  0.39039079  0.64918444     0.05200
H492        H  0.48053252  0.39435849  0.66389293    -0.00600
H493        H  0.54845599  0.42745672  0.66491842     0.00900
H494        H  0.50685033  0.60995696  0.63986004     0.04600
H495        H  0.47992339  0.57273374  0.62382140     0.06500
H496        H  0.54762038  0.61337198  0.62545381     0.07400
C497        C  0.54705237  0.01386893  0.68102059    -0.22200
C498        C  0.50092884  0.99418388  0.67373380     0.09700
C499        C  0.45669005  0.98089416  0.68167691     0.10100
C500        C  0.45954866  0.98703457  0.69681611    -0.17200
C501        C  0.50553897  0.00581507  0.70419729    -0.27600
C502        C  0.55011077  0.02063761  0.69612773     0.18500
C503        C  0.50002471  0.98850956  0.65774209     0.12400
C504        C  0.40658451  0.96047513  0.67417399    -0.11900
H505        H  0.42551571  0.97624410  0.70295502     0.12700
C506        C  0.60163703  0.04578104  0.70291920    -0.22800
H507        H  0.58106606  0.02480962  0.67482540     0.08400
C508        C  0.51646110  0.03025016  0.64843135     0.04700
C509        C  0.51530494  0.02310068  0.63336686    -0.20000
C510        C  0.49782018  0.97503517  0.62725124    -0.12300
C511        C  0.48079711  0.93297285  0.63675162     0.13400
C512        C  0.48249731  0.94053688  0.65185027    -0.22700
C513        C  0.53450141  0.08228268  0.65438920    -0.05800
H514        H  0.52792478  0.05556716  0.62634327     0.14900
C515        C  0.46091118  0.87998674  0.63130727    -0.16000
H516        H  0.46995198  0.90877990  0.65917136     0.09300
H517        H  0.62604026  0.08237526  0.69744321     0.07100
H518        H  0.61868670  0.02147812  0.70165134     0.08300
H519        H  0.60080344  0.05393444  0.71455385     0.07400
H520        H  0.39677472  0.92468498  0.66857294     0.02200
H521        H  0.40848097  0.98820759  0.66607147     0.02700
H522        H  0.37595374  0.95278285  0.68198394     0.06200
H523        H  0.54491148  0.11058609  0.64559049     0.05200
H524        H  0.56819318  0.09398466  0.66130766    -0.00600
H525        H  0.50424056  0.08237724  0.66098250     0.00900
H526        H  0.45030690  0.85256711  0.64036615     0.04600
H527        H  0.49019967  0.87781501  0.62478297     0.06500
H528        H  0.42661189  0.86821962  0.62465517     0.07400
C529        C  0.71475293  0.48655476  0.59394552    -0.22200
C530        C  0.75088703  0.51676546  0.58361949     0.09700
C531        C  0.74028117  0.54537171  0.57373155     0.10100
C532        C  0.69349699  0.54301554  0.57438061    -0.17200
C533        C  0.65711128  0.51268730  0.58467114    -0.27600
C534        C  0.66811716  0.48459581  0.59474943     0.18500
C535        C  0.80004592  0.51870425  0.58350982     0.12400
C536        C  0.77855305  0.57881059  0.56263107    -0.11900
H537        H  0.68509525  0.56476101  0.56674720     0.12700
C538        C  0.63298706  0.45417063  0.60688906    -0.22800
H539        H  0.72345874  0.46515930  0.60162618     0.08400
C540        C  0.83835418  0.54880439  0.59347033     0.04700
C541        C  0.88471481  0.55021003  0.59274439    -0.20000
C542        C  0.89350781  0.52215269  0.58230077    -0.12300
C543        C  0.85540704  0.49295670  0.57207799     0.13400
C544        C  0.80886736  0.49108132  0.57297729    -0.22700
C545        C  0.83041919  0.57973676  0.60474932    -0.05800
H546        H  0.91407243  0.57284921  0.60048430     0.14900
C547        C  0.86298103  0.46524719  0.55968610    -0.16000
H548        H  0.77950963  0.46871723  0.56519920     0.09300
H549        H  0.65275863  0.46750298  0.61745913     0.07100
H550        H  0.62150910  0.41387670  0.60550704     0.08300
H551        H  0.59866787  0.45738848  0.60748000     0.07400
H552        H  0.78768996  0.55584244  0.55527077     0.02200
H553        H  0.81340305  0.60716536  0.56820352     0.02700
H554        H  0.76440039  0.59916360  0.55588492     0.06200
H555        H  0.86451307  0.60170674  0.61153906     0.05200
H556        H  0.79892235  0.55468885  0.61203895    -0.00600
H557        H  0.82131195  0.60657401  0.59933585     0.00900
H558        H  0.83663157  0.42420511  0.56087108     0.04600
H559        H  0.90182848  0.47184068  0.55893467     0.06500
H560        H  0.85497619  0.47808112  0.54925097     0.07400
C561        C  0.25694828  0.57011417  0.58769844    -0.22200
C562        C  0.25676106  0.52709752  0.58253145     0.09700
C563        C  0.21173213  0.48620661  0.57729643     0.10100
C564        C  0.16742889  0.48886114  0.57756087    -0.17200
C565        C  0.16692558  0.53164018  0.58287834    -0.27600
C566        C  0.21272310  0.57317859  0.58789765     0.18500
C567        C  0.30403830  0.52523547  0.58287554     0.12400
C568        C  0.21058319  0.43989116  0.57133923    -0.11900
H569        H  0.13294062  0.45721229  0.57350495     0.12700
C570        C  0.21555886  0.62036929  0.59380998    -0.22800
H571        H  0.29195386  0.60133174  0.59166488     0.08400
C572        C  0.34093041  0.54826208  0.57196996     0.04700
C573        C  0.38474150  0.54470095  0.57267277    -0.20000
C574        C  0.39214204  0.51829749  0.58396481    -0.12300
C575        C  0.35547154  0.49590857  0.59502689     0.13400
C576        C  0.31166979  0.49944369  0.59426964    -0.22700
C577        C  0.33368841  0.57594754  0.55953034    -0.05800
H578        H  0.41316882  0.56213592  0.56428629     0.14900
C579        C  0.36195593  0.46973818  0.60803161    -0.16000
H580        H  0.28334744  0.48226459  0.60269410     0.09300
H581        H  0.20626966  0.63954204  0.58513274     0.07100
H582        H  0.25389100  0.64756168  0.59782110     0.08300
H583        H  0.18904297  0.61082464  0.60305128     0.07400
H584        H  0.22180170  0.42199527  0.57992279     0.02200
H585        H  0.23707495  0.45043600  0.56205351     0.02700
H586        H  0.17244979  0.41166690  0.56745038     0.06200
H587        H  0.36580806  0.59101325  0.55181311     0.05200
H588        H  0.33034449  0.60805183  0.56374822    -0.00600
H589        H  0.29890949  0.55003668  0.55347460     0.00900
H590        H  0.35980681  0.48841350  0.61812204     0.04600
H591        H  0.39850181  0.47065774  0.60818695     0.06500
H592        H  0.33134991  0.42979640  0.60819412     0.07400
C593        C  0.97504160  0.51320111  0.64968525    -0.22200
C594        C  0.01580125  0.51955997  0.65812853     0.09700
C595        C  0.06066288  0.52834428  0.65128944     0.10100
C596        C  0.06386249  0.53093671  0.63605225    -0.17200
C597        C  0.02294999  0.52435506  0.62760459    -0.27600
C598        C  0.97796378  0.51537244  0.63448297     0.18500
C599        C  0.01063422  0.51719668  0.67413875     0.12400
C600        C  0.10490679  0.53481327  0.66009136    -0.11900
H601        H  0.09813555  0.53758379  0.63070100     0.12700
C602        C  0.93247957  0.50817873  0.62615643    -0.22800
H603        H  0.94070637  0.50652734  0.65501016     0.08400
C604        C  0.02082531  0.56010232  0.68232379     0.04700
C605        C  0.01546269  0.55615540  0.69747708    -0.20000
C606        C  0.99977498  0.51017927  0.70461838    -0.12300
C607        C  0.98757807  0.46665504  0.69630652     0.13400
C608        C  0.99396135  0.47099626  0.68116936    -0.22700
C609        C  0.03764878  0.61004229  0.67505314    -0.05800
H610        H  0.02446354  0.58939581  0.70381949     0.14900
C611        C  0.96567070  0.41478150  0.70284195    -0.16000
H612        H  0.98503648  0.43790511  0.67475763     0.09300
H613        H  0.92325017  0.53747373  0.62943881     0.07100
H614        H  0.89985652  0.47052654  0.62865988     0.08300
H615        H  0.93815235  0.51078979  0.61424349     0.07400
H616        H  0.09376299  0.50040437  0.66664077     0.02200
H617        H  0.11777486  0.56755495  0.66749030     0.02700
H618        H  0.13703414  0.54134052  0.65305639     0.06200
H619        H  0.04433447  0.63985207  0.68305557     0.05200
H620        H  0.00827464  0.60658235  0.66732882    -0.00600
H621        H  0.07323027  0.62203958  0.66903496     0.00900
H622        H  0.92951691  0.38895906  0.69736023     0.04600
H623        H  0.95730479  0.41355655  0.71457846     0.06500
H624        H  0.99212042  0.40041751  0.70119746     0.07400
C625        C  0.68663937  0.93539413  0.57633207    -0.22200
C626        C  0.72479778  0.97169882  0.58508854     0.09700
C627        C  0.71661536  0.00687912  0.59265772     0.10100
C628        C  0.66999868  0.00477172  0.59133193    -0.17200
C629        C  0.63133409  0.96816623  0.58262827    -0.27600
C630        C  0.64017667  0.93337993  0.57484748     0.18500
C631        C  0.77378947  0.97334497  0.58559962     0.12400
C632        C  0.75692118  0.04619538  0.60222384    -0.11900
H633        H  0.66342396  0.03139451  0.59731099     0.12700
C634        C  0.60299333  0.89510976  0.56437184    -0.22800
H635        H  0.69361862  0.90901809  0.57035267     0.08400
C636        C  0.78171797  0.94102672  0.59471788     0.04700
C637        C  0.82820641  0.94256219  0.59428738    -0.20000
C638        C  0.86669145  0.97530352  0.58482170    -0.12300
C639        C  0.85803233  0.00685901  0.57541095     0.13400
C640        C  0.81198561  0.00607058  0.57616428    -0.22700
C641        C  0.74111288  0.90502829  0.60486902    -0.05800
H642        H  0.83459724  0.91811316  0.60139944     0.14900
C643        C  0.89470196  0.03962666  0.56384621    -0.16000
H644        H  0.80510420  0.02999947  0.56896340     0.09300
H645        H  0.59141182  0.85659519  0.56830389     0.07100
H646        H  0.62094621  0.90052124  0.55353958     0.08300
H647        H  0.56899646  0.89815102  0.56280376     0.07400
H648        H  0.79087153  0.07061259  0.59564657     0.02200
H649        H  0.76705974  0.02761177  0.61088082     0.02700
H650        H  0.74423050  0.07050054  0.60750038     0.06200
H651        H  0.75364544  0.88273699  0.61135643     0.05200
H652        H  0.70739525  0.87837718  0.59853790    -0.00600
H653        H  0.73065393  0.92632499  0.61249697     0.00900
H654        H  0.87542700  0.03035377  0.55313705     0.04600
H655        H  0.92762438  0.03434951  0.56265114     0.06500
H656        H  0.90814213  0.07981174  0.56630742     0.07400
C657        C  0.21346582  0.99259803  0.57218959    -0.22200
C658        C  0.21937804  0.96139427  0.58215468     0.09700
C659        C  0.18062450  0.93255653  0.59213243     0.10100
C660        C  0.13640697  0.93538860  0.59186256    -0.17200
C661        C  0.13073138  0.96740330  0.58210801    -0.27600
C662        C  0.16958814  0.99616989  0.57206765     0.18500
C663        C  0.26743274  0.96118245  0.58234232     0.12400
C664        C  0.18633928  0.89955718  0.60320794    -0.11900
H665        H  0.10655470  0.91340427  0.59954223     0.12700
C666        C  0.16448300  0.02953071  0.56097768    -0.22800
H667        H  0.24356074  0.01454218  0.56457543     0.08400
C668        C  0.27437240  0.92641854  0.57409952     0.04700
C669        C  0.32092728  0.92815115  0.57464349    -0.20000
C670        C  0.36064341  0.96393359  0.58321723    -0.12300
C671        C  0.35296566  0.99792732  0.59179896     0.13400
C672        C  0.30664861  0.99654758  0.59102443    -0.22700
C673        C  0.23288356  0.88797760  0.56463288    -0.05800
H674        H  0.32665560  0.90197875  0.56813699     0.14900
C675        C  0.39133287  0.03454302  0.60239990    -0.16000
H676        H  0.30064304  0.02264160  0.59749136     0.09300
H677        H  0.19732986  0.04706134  0.55352076     0.07100
H678        H  0.16202313  0.06037776  0.56649595     0.08300
H679        H  0.13014150  0.00702145  0.55432785     0.07400
H680        H  0.21931566  0.92285776  0.61025924     0.02200
H681        H  0.19200718  0.87066279  0.59766212     0.02700
H682        H  0.15256244  0.87985052  0.61025687     0.06200
H683        H  0.24468816  0.86378670  0.55885150     0.05200
H684        H  0.22214476  0.90733782  0.55638344    -0.00600
H685        H  0.19948589  0.86328766  0.57136117     0.00900
H686        H  0.40391699  0.07367642  0.59884875     0.04600
H687        H  0.42467725  0.02999362  0.60371297     0.06500
H688        H  0.37385009  0.02865901  0.61331899     0.07400
C689        C  0.05145159  0.01409123  0.65158170    -0.22200
C690        C  0.00943201  0.97852465  0.65936725     0.09700
C691        C  0.96769510  0.94046513  0.65186467     0.10100
C692        C  0.96813918  0.93995591  0.63663502    -0.17200
C693        C  0.00970582  0.97620955  0.62871508    -0.27600
C694        C  0.05282063  0.01273209  0.63635779     0.18500
C695        C  0.00976852  0.98196327  0.67540071     0.12400
C696        C  0.92284102  0.90032563  0.65995187    -0.11900
H697        H  0.93540019  0.91149752  0.63087580     0.12700
C698        C  0.10176372  0.04925992  0.62907386    -0.22800
H699        H  0.08387443  0.04254427  0.65746873     0.08400
C700        C  0.03441910  0.96317242  0.68409850     0.04700
C701        C  0.03327975  0.96706776  0.69925721    -0.20000
C702        C  0.00789506  0.98927404  0.70603281    -0.12300
C703        C  0.98289708  0.00796994  0.69711572     0.13400
C704        C  0.98446299  0.00411764  0.68194267    -0.22700
C705        C  0.06139373  0.93845938  0.67736933    -0.05800
H706        H  0.05238325  0.95240353  0.70581978     0.14900
C707        C  0.95416939  0.03182064  0.70324681    -0.16000
H708        H  0.96558854  0.01828840  0.67506561     0.09300
H709        H  0.13300062  0.04627058  0.63417368     0.07100
H710        H  0.10906067  0.08828083  0.63053178     0.08300
H711        H  0.10290253  0.04185804  0.61736768     0.07400
H712        H  0.90548332  0.91780029  0.66660597     0.02200
H713        H  0.93494378  0.87933854  0.66718199     0.02700
H714        H  0.89370336  0.87294153  0.65242776     0.06200
H715        H  0.07816760  0.92513538  0.68573189     0.05200
H716        H  0.09219020  0.96569962  0.67023992    -0.00600
H717        H  0.03452588  0.90550002  0.67081215     0.00900
H718        H  0.93715634  0.04373166  0.69456551     0.04600
H719        H  0.97989671  0.06594475  0.70957574     0.06500
H720        H  0.92297326  0.00439960  0.71023925     0.07400
C721        C  0.51189414  0.46271355  0.84913949    -0.22200
C722        C  0.50471591  0.49874929  0.84189291     0.09700
C723        C  0.49620363  0.53280374  0.84995247     0.10100
C724        C  0.49568631  0.53044799  0.86518200    -0.17200
C725        C  0.50353117  0.49478479  0.87261453    -0.27600
C726        C  0.51147863  0.46013483  0.86437666     0.18500
C727        C  0.50606154  0.49981118  0.82581278     0.12400
C728        C  0.48828196  0.57199889  0.84246775    -0.11900
H729        H  0.48958541  0.55709891  0.87130327     0.12700
C730        C  0.51847861  0.41954437  0.87135930    -0.22800
H731        H  0.51792039  0.43644913  0.84277449     0.08400
C732        C  0.55199386  0.52107600  0.81813648     0.04700
C733        C  0.55127071  0.51968895  0.80289345    -0.20000
C734        C  0.50568550  0.49798096  0.79521085    -0.12300
C735        C  0.45962545  0.47645962  0.80292526     0.13400
C736        C  0.46049986  0.47789264  0.81815421    -0.22700
C737        C  0.60165057  0.54570147  0.82603756    -0.05800
H738        H  0.58642499  0.53600761  0.79692513     0.14900
C739        C  0.40891970  0.44993891  0.79555370    -0.16000
H740        H  0.42532388  0.46107056  0.82412568     0.09300
H741        H  0.52136522  0.39455660  0.86315332     0.07100
H742        H  0.48580914  0.39568535  0.87845453     0.08300
H743        H  0.55379847  0.43672669  0.87779253     0.07400
H744        H  0.45430991  0.55341005  0.83546897     0.02200
H745        H  0.52156099  0.59648415  0.83565506     0.02700
H746        H  0.48289013  0.59622505  0.85038202     0.06200
H747        H  0.63395391  0.56128192  0.81838100     0.05200
H748        H  0.60429776  0.51776048  0.83309396    -0.00600
H749        H  0.60485553  0.57705555  0.83284510     0.00900
H750        H  0.38729882  0.41055057  0.79955086     0.04600
H751        H  0.41128639  0.44824416  0.78358675     0.06500
H752        H  0.38773234  0.46951913  0.79820235     0.07400
C753        C  0.45212326  0.00211482  0.81656370    -0.22200
C754        C  0.49708413  0.01765200  0.82416719     0.09700
C755        C  0.54167492  0.03068915  0.81646787     0.10100
C756        C  0.54026878  0.02778100  0.80124767    -0.17200
C757        C  0.49529070  0.01220808  0.79356420    -0.27600
C758        C  0.45040711  0.99866161  0.80134954     0.18500
C759        C  0.49588388  0.01690979  0.84023919     0.12400
C760        C  0.59063406  0.04766140  0.82433446    -0.11900
H761        H  0.57458704  0.03814860  0.79528966     0.12700
C762        C  0.39966034  0.97808595  0.79416946    -0.22800
H763        H  0.41782152  0.99133300  0.82258815     0.08400
C764        C  0.50126036  0.05819586  0.84839382     0.04700
C765        C  0.49985321  0.05529872  0.86363774    -0.20000
C766        C  0.49250086  0.01172653  0.87087522    -0.12300
C767        C  0.48455344  0.96939727  0.86255657     0.13400
C768        C  0.48771356  0.97316925  0.84737346    -0.22700
C769        C  0.50870979  0.10522665  0.84098372    -0.05800
H770        H  0.50517079  0.08745433  0.86993562     0.14900
C771        C  0.46988294  0.91873054  0.86908610    -0.16000
H772        H  0.48231345  0.94112037  0.84098928     0.09300
H773        H  0.38499350  0.00416696  0.79607361     0.07100
H774        H  0.37299311  0.94088706  0.79898085     0.08300
H775        H  0.40032899  0.97221572  0.78233300     0.07400
H776        H  0.58701520  0.01736134  0.83170452     0.02200
H777        H  0.60044261  0.08185483  0.83082503     0.02700
H778        H  0.62203043  0.05684051  0.81666958     0.06200
H779        H  0.51239022  0.13406786  0.84894931     0.05200
H780        H  0.47596198  0.09598471  0.83387320    -0.00600
H781        H  0.54341374  0.12167540  0.83427635     0.00900
H782        H  0.43560320  0.88918106  0.86355188     0.04600
H783        H  0.46038109  0.91574214  0.88076561     0.06500
H784        H  0.50083380  0.91035938  0.86748965     0.07400
C785        C  0.68066173  0.22612697  0.92699931    -0.22200
C786        C  0.72009935  0.23166187  0.91809229     0.09700
C787        C  0.71405170  0.19080201  0.90958922     0.10100
C788        C  0.66789738  0.14547353  0.90986752    -0.17200
C789        C  0.62776898  0.14000436  0.91854669    -0.27600
C790        C  0.63485697  0.18051038  0.92758770     0.18500
C791        C  0.76773349  0.28048142  0.91795253     0.12400
C792        C  0.75617743  0.19537578  0.90011685    -0.11900
H793        H  0.66278176  0.11446654  0.90304089     0.12700
C794        C  0.59629951  0.17667503  0.93846658    -0.22800
H795        H  0.68603943  0.25741819  0.93374725     0.08400
C796        C  0.77432698  0.32004135  0.90873320     0.04700
C797        C  0.82047487  0.36536816  0.90881122    -0.20000
C798        C  0.86009591  0.37200412  0.91792659    -0.12300
C799        C  0.85273168  0.33272436  0.92752131     0.13400
C800        C  0.80679131  0.28719733  0.92723920    -0.22700
C801        C  0.73277999  0.31415659  0.89875585    -0.05800
H802        H  0.82591831  0.39558731  0.90157197     0.14900
C803        C  0.89115325  0.33789436  0.93864901    -0.16000
H804        H  0.80106985  0.25686915  0.93447809     0.09300
H805        H  0.58235197  0.20246631  0.93528052     0.07100
H806        H  0.61406555  0.18789727  0.94936247     0.08300
H807        H  0.56386934  0.13814105  0.93966380     0.07400
H808        H  0.78939867  0.20397971  0.90693429     0.02200
H809        H  0.76682712  0.22611527  0.89209255     0.02700
H810        H  0.74514528  0.16002355  0.89407200     0.06200
H811        H  0.74424388  0.34861024  0.89218804     0.05200
H812        H  0.69920546  0.30658894  0.90524484    -0.00600
H813        H  0.72250959  0.28227966  0.89119156     0.00900
H814        H  0.87370895  0.32965272  0.94961223     0.04600
H815        H  0.92451743  0.37608865  0.93916527     0.06500
H816        H  0.90383444  0.31051733  0.93622949     0.07400
C817        C  0.27132043  0.82388286  0.90355072    -0.22200
C818        C  0.26371555  0.78462771  0.91289698     0.09700
C819        C  0.30306358  0.79022243  0.92203842     0.10100
C820        C  0.34900903  0.83563696  0.92189572    -0.17200
C821        C  0.35657682  0.87549725  0.91276668    -0.27600
C822        C  0.31760477  0.86909423  0.90317780     0.18500
C823        C  0.21474363  0.73724039  0.91273299     0.12400
C824        C  0.29645486  0.74819669  0.93193664    -0.11900
H825        H  0.37899627  0.84029711  0.92910248     0.12700
C826        C  0.32398504  0.90773414  0.89195675    -0.22800
H827        H  0.24122380  0.81882226  0.89631554     0.08400
C828        C  0.17546603  0.72954270  0.92221555     0.04700
C829        C  0.13100735  0.68262013  0.92236074    -0.20000
C830        C  0.12481615  0.64338421  0.91314496    -0.12300
C831        C  0.16342494  0.65228133  0.90307304     0.13400
C832        C  0.20824900  0.69886297  0.90321814    -0.22700
C833        C  0.18072356  0.77074801  0.93222504    -0.05800
H834        H  0.10123934  0.67624300  0.92989900     0.14900
C835        C  0.15832909  0.61491428  0.89159490    -0.16000
H836        H  0.23832210  0.70550746  0.89575731     0.09300
H837        H  0.29769346  0.92180102  0.89433937     0.07100
H838        H  0.31509978  0.88998624  0.88103287     0.08300
H839        H  0.36274617  0.94020047  0.89137418     0.07400
H840        H  0.28780312  0.71441491  0.92539071     0.02200
H841        H  0.26507252  0.73859252  0.93962969     0.02700
H842        H  0.33097371  0.75879770  0.93837506     0.06200
H843        H  0.14644976  0.75850363  0.93893791     0.05200
H844        H  0.18705714  0.80393515  0.92573006    -0.00600
H845        H  0.21312196  0.78199253  0.93965731     0.00900
H846        H  0.16586959  0.63317358  0.88074897     0.04600
H847        H  0.12031915  0.58133608  0.89101261     0.06500
H848        H  0.18624818  0.60262832  0.89363122     0.07400
C849        C  0.98982848  0.54918148  0.84808880    -0.22200
C850        C  0.98694648  0.50819968  0.84054384     0.09700
C851        C  0.98289250  0.46669974  0.84829194     0.10100
C852        C  0.98252682  0.46743343  0.86352212    -0.17200
C853        C  0.98566021  0.50854391  0.87119126    -0.27600
C854        C  0.98912372  0.54995304  0.86333282     0.18500
C855        C  0.98955022  0.51022321  0.82450103     0.12400
C856        C  0.97866500  0.42159973  0.84047378    -0.11900
H857        H  0.97965425  0.43560409  0.86948061     0.12700
C858        C  0.99409716  0.59591410  0.87083406    -0.22800
H859        H  0.99316955  0.58093803  0.84197641     0.08400
C860        C  0.94735514  0.50013795  0.81597524     0.04700
C861        C  0.95194565  0.50306450  0.80079829    -0.20000
C862        C  0.99777125  0.51584168  0.79398067    -0.12300
C863        C  0.04047148  0.52728279  0.80260468     0.13400
C864        C  0.03551680  0.52366685  0.81776647    -0.22700
C865        C  0.89739591  0.48552113  0.82289653    -0.05800
H866        H  0.91930681  0.49437747  0.79419725     0.14900
C867        C  0.09223260  0.54553332  0.79636621    -0.16000
H868        H  0.06802461  0.53227685  0.82442818     0.09300
H869        H  0.95953018  0.58574608  0.87716639     0.07100
H870        H  0.99924889  0.62553976  0.86294187     0.08300
H871        H  0.02729707  0.61216532  0.87816800     0.07400
H872        H  0.01274861  0.43306507  0.83375578     0.02200
H873        H  0.94496634  0.40502116  0.83333660     0.02700
H874        H  0.97497087  0.39204773  0.84817754     0.06200
H875        H  0.86806851  0.47809043  0.81463823     0.05200
H876        H  0.90118247  0.51637020  0.83004095    -0.00600
H877        H  0.88453114  0.45084147  0.82946963     0.00900
H878        H  0.11928630  0.58206513  0.80144845     0.04600
H879        H  0.09437823  0.55201640  0.78449765     0.06500
H880        H  0.10442743  0.51776504  0.79878311     0.07400
C881        C  0.81210681  0.77751316  0.92756597    -0.22200
C882        C  0.77313204  0.77117939  0.91831238     0.09700
C883        C  0.77911229  0.81163651  0.90961033     0.10100
C884        C  0.82480178  0.85738106  0.91004340    -0.17200
C885        C  0.86438180  0.86370840  0.91911807    -0.27600
C886        C  0.85734856  0.82360270  0.92833612     0.18500
C887        C  0.72567051  0.72227340  0.91827271     0.12400
C888        C  0.73723123  0.80644307  0.89990167    -0.11900
H889        H  0.82989310  0.88818416  0.90311756     0.12700
C890        C  0.89520531  0.82843472  0.93962581    -0.22800
H891        H  0.80667915  0.74656609  0.93449184     0.08400
C892        C  0.71828382  0.68318397  0.90874621     0.04700
C893        C  0.67246890  0.63754378  0.90910433    -0.20000
C894        C  0.63401225  0.63018564  0.91879381    -0.12300
C895        C  0.64216335  0.66907588  0.92864512     0.13400
C896        C  0.68775109  0.71485970  0.92810367    -0.22700
C897        C  0.75871823  0.68975131  0.89821896    -0.05800
H898        H  0.66634524  0.60765660  0.90164432     0.14900
C899        C  0.60496947  0.66330955  0.94026587    -0.16000
H900        H  0.69412015  0.74484878  0.93556166     0.09300
H901        H  0.90994368  0.80297856  0.93684492     0.07100
H902        H  0.87652919  0.81738060  0.95040735     0.08300
H903        H  0.92720203  0.86722324  0.94083384     0.07400
H904        H  0.70361288  0.79755196  0.90656131     0.02200
H905        H  0.72721936  0.77570378  0.89193859     0.02700
H906        H  0.74817604  0.84164621  0.89377442     0.06200
H907        H  0.74674236  0.65551620  0.89150968     0.05200
H908        H  0.79316001  0.69751220  0.90428233    -0.00600
H909        H  0.76780761  0.72171248  0.89079557     0.00900
H910        H  0.62379891  0.67175734  0.95103341     0.04600
H911        H  0.57200348  0.62489929  0.94096168     0.06500
H912        H  0.59150459  0.69030082  0.93822770     0.07400
C913        C  0.31191557  0.27351078  0.92421120    -0.22200
C914        C  0.27417019  0.26998803  0.91491301     0.09700
C915        C  0.28247504  0.31201339  0.90659057     0.10100
C916        C  0.32888661  0.35680488  0.90767301    -0.17200
C917        C  0.36694178  0.36066150  0.91702367    -0.27600
C918        C  0.35785473  0.31857198  0.92564015     0.18500
C919        C  0.22496406  0.22291877  0.91495044     0.12400
C920        C  0.24233554  0.30948773  0.89661430    -0.11900
H921        H  0.33560428  0.38895782  0.90111573     0.12700
C922        C  0.39387690  0.32011524  0.93706801    -0.22800
H923        H  0.30468011  0.24127804  0.93082056     0.08400
C924        C  0.21593726  0.18129163  0.90632270     0.04700
C925        C  0.16937751  0.13665204  0.90739260    -0.20000
C926        C  0.13192212  0.13264645  0.91700070    -0.12300
C927        C  0.14161937  0.17431878  0.92586866     0.13400
C928        C  0.18775423  0.21917410  0.92450776    -0.22700
C929        C  0.25544265  0.18406545  0.89604459    -0.05800
H930        H  0.16205897  0.10473885  0.90063948     0.14900
C931        C  0.10592149  0.17244681  0.93744856    -0.16000
H932        H  0.19548357  0.25110991  0.93131660     0.09300
H933        H  0.40791589  0.29435966  0.93393953     0.07100
H934        H  0.37384441  0.30739129  0.94762209     0.08300
H935        H  0.42636454  0.35814134  0.93896510     0.07400
H936        H  0.20820321  0.30079472  0.90298657     0.02200
H937        H  0.23246645  0.27958354  0.88836525     0.02700
H938        H  0.25504044  0.34567405  0.89083402     0.06200
H939        H  0.24217294  0.14819003  0.89004664     0.05200
H940        H  0.28976634  0.19207587  0.90221492    -0.00600
H941        H  0.26519343  0.21452310  0.88798588     0.00900
H942        H  0.12590500  0.18361708  0.94804169     0.04600
H943        H  0.07274041  0.13461649  0.93903237     0.06500
H944        H  0.09281095  0.19925309  0.93468083     0.07400
C945        C  0.99772714  0.03472894  0.84923923    -0.22200
C946        C  0.00633955  0.99935679  0.84218747     0.09700
C947        C  0.01279128  0.96424712  0.85039422     0.10100
C948        C  0.00966721  0.96475782  0.86558622    -0.17200
C949        C  0.00024463  0.99966006  0.87282191    -0.27600
C950        C  0.99459907  0.03553177  0.86444703     0.18500
C951        C  0.00678413  0.99872134  0.82613285     0.12400
C952        C  0.02276845  0.92616114  0.84307897    -0.11900
H953        H  0.01428227  0.93735420  0.87182629     0.12700
C954        C  0.98632289  0.07550683  0.87128011    -0.22800
H955        H  0.99305315  0.06163272  0.84274744     0.08400
C956        C  0.96180676  0.97117108  0.81817511     0.04700
C957        C  0.96372194  0.97157671  0.80295801    -0.20000
C958        C  0.00963486  0.99849447  0.79558004    -0.12300
C959        C  0.05473349  0.02663742  0.80355691     0.13400
C960        C  0.05268304  0.02624556  0.81879012    -0.22700
C961        C  0.91192954  0.94112256  0.82576986    -0.05800
H962        H  0.92931477  0.95024312  0.79677221     0.14900
C963        C  0.10524100  0.05855947  0.79641090    -0.16000
H964        H  0.08703457  0.04772978  0.82498866     0.09300
H965        H  0.98548774  0.10154699  0.86303527     0.07100
H966        H  0.01735922  0.09838133  0.87898042     0.08300
H967        H  0.94962650  0.05778182  0.87703279     0.07400
H968        H  0.05812129  0.94586265  0.83668392     0.02200
H969        H  0.99114895  0.90214660  0.83568683     0.02700
H970        H  0.02681081  0.90129683  0.85108374     0.06200
H971        H  0.88049385  0.92154603  0.81791987     0.05200
H972        H  0.90420523  0.96649053  0.83251897    -0.00600
H973        H  0.91277159  0.91225265  0.83285664     0.00900
H974        H  0.12140037  0.09825062  0.79999449     0.04600
H975        H  0.10320411  0.05822370  0.78439383     0.06500
H976        H  0.13116397  0.04485465  0.79967324     0.07400
C977        C  0.54385439  0.52569489  0.98538373    -0.22200
C978        C  0.49815970  0.49848199  0.99286132     0.09700
C979        C  0.45298983  0.47085358  0.98494365     0.10100
C980        C  0.45460989  0.47125856  0.96969102    -0.17200
C981        C  0.50039246  0.49803682  0.96222441    -0.27600
C982        C  0.54564887  0.52573363  0.97015602     0.18500
C983        C  0.49859178  0.49963768  0.00898014     0.12400
C984        C  0.40330309  0.44012239  0.99257782    -0.11900
H985        H  0.42009499  0.44997099  0.96354939     0.12700
C986        C  0.59625926  0.55670589  0.96298020    -0.22800
H987        H  0.57840353  0.54726975  0.99149325     0.08400
C988        C  0.51748944  0.47378316  0.01719376     0.04700
C989        C  0.51743231  0.47633106  0.03241894    -0.20000
C990        C  0.49833369  0.50354938  0.03959474    -0.12300
C991        C  0.47975640  0.52979917  0.03137794     0.13400
C992        C  0.48019709  0.52750239  0.01615440    -0.22700
C993        C  0.53655231  0.44253224  0.00992194    -0.05800
H994        H  0.53144746  0.45615701  0.03878312     0.14900
C995        C  0.46057751  0.56166481  0.03823454    -0.16000
H996        H  0.46634315  0.54786348  0.00981123     0.09300
H997        H  0.62151696  0.54221825  0.96626406     0.07100
H998        H  0.61323923  0.59648773  0.96654513     0.08300
H999        H  0.59424473  0.55626507  0.95096633     0.07400
H1000       H  0.39455007  0.46503007  0.99918181     0.02200
H1001       H  0.40510250  0.41200732  0.99978184     0.02700
H1002       H  0.37197840  0.41959196  0.98475229     0.06200
H1003       H  0.54848095  0.42357160  0.01797821     0.05200
H1004       H  0.56949515  0.46677121  0.00298414    -0.00600
H1005       H  0.50630262  0.41307933  0.00310521     0.00900
H1006       H  0.48282244  0.60088421  0.03414680     0.04600
H1007       H  0.46352713  0.56320507  0.05023704     0.06500
H1008       H  0.42047599  0.54648720  0.03524787     0.07400
C1009       C  0.53635345  0.72356451  0.07393264    -0.22200
C1010       C  0.50549180  0.73163677  0.08346010     0.09700
C1011       C  0.47298784  0.69292481  0.09297314     0.10100
C1012       C  0.47241735  0.64692004  0.09286180    -0.17200
C1013       C  0.50345734  0.63866543  0.08340112    -0.27600
C1014       C  0.53520729  0.67723356  0.07357857     0.18500
C1015       C  0.50584584  0.78003090  0.08286241     0.12400
C1016       C  0.43902594  0.70032420  0.10325219    -0.11900
H1017       H  0.44783434  0.61729908  0.10028310     0.12700
C1018       C  0.56628885  0.67037290  0.06206664    -0.22800
H1019       H  0.56047290  0.75318346  0.06643906     0.08400
C1020       C  0.54080490  0.82237436  0.09085552     0.04700
C1021       C  0.53772012  0.86654534  0.09048634    -0.20000
C1022       C  0.50070718  0.86935153  0.08219005    -0.12300
C1023       C  0.46729484  0.82743377  0.07358471     0.13400
C1024       C  0.46976938  0.78305397  0.07428696    -0.22700
C1025       C  0.58089566  0.82061977  0.09986125    -0.05800
H1026       H  0.56382357  0.89878564  0.09689015     0.14900
C1027       C  0.43013109  0.82838116  0.06302269    -0.16000
H1028       H  0.44370215  0.75061198  0.06793182     0.09300
H1029       H  0.60687437  0.69645818  0.06419138     0.07100
H1030       H  0.55663981  0.67925674  0.05124741     0.08300
H1031       H  0.55967827  0.63152369  0.06138460     0.07400
H1032       H  0.41278099  0.70822936  0.09700134     0.02200
H1033       H  0.46198095  0.73248737  0.11060182     0.02700
H1034       H  0.41624809  0.66640900  0.11003909     0.06200
H1035       H  0.60504157  0.85687452  0.10552249     0.05200
H1036       H  0.60532478  0.81264221  0.09275643    -0.00600
H1037       H  0.56313577  0.79053120  0.10818583     0.00900
H1038       H  0.43625266  0.81707296  0.05209036     0.04600
H1039       H  0.43390194  0.86595542  0.06171416     0.06500
H1040       H  0.39119929  0.80127719  0.06659135     0.07400
C1041       C  0.51726033  0.21653705  0.07258172    -0.22200
C1042       C  0.48444141  0.22129882  0.08215243     0.09700
C1043       C  0.45079519  0.17982147  0.09067942     0.10100
C1044       C  0.45226616  0.13485734  0.08987998    -0.17200
C1045       C  0.48618577  0.13034519  0.08059832    -0.27600
C1046       C  0.51794134  0.17129634  0.07145172     0.18500
C1047       C  0.48570683  0.27007855  0.08286342     0.12400
C1048       C  0.41339745  0.18307905  0.10056772    -0.11900
H1049       H  0.42747539  0.10338562  0.09674501     0.12700
C1050       C  0.55140375  0.16836299  0.05994508    -0.22800
H1051       H  0.54206159  0.24823632  0.06577764     0.08400
C1052       C  0.51640239  0.30739831  0.09298803     0.04700
C1053       C  0.51751648  0.35369723  0.09295423    -0.20000
C1054       C  0.48903424  0.36360158  0.08292565    -0.12300
C1055       C  0.45953987  0.32661449  0.07245290     0.13400
C1056       C  0.45767562  0.27998385  0.07273853    -0.22700
C1057       C  0.54839911  0.29853463  0.10367662    -0.05800
H1058       H  0.54056785  0.38226833  0.10083899     0.14900
C1059       C  0.43171935  0.33558656  0.06035626    -0.16000
H1060       H  0.43516779  0.25152130  0.06475700     0.09300
H1061       H  0.59144702  0.19463624  0.06269262     0.07100
H1062       H  0.54295305  0.17953731  0.04929505     0.08300
H1063       H  0.54582645  0.13010490  0.05847279     0.07400
H1064       H  0.38819689  0.19181316  0.09407517     0.02200
H1065       H  0.43336156  0.21317297  0.10875681     0.02700
H1066       H  0.38971046  0.14714191  0.10643593     0.06200
H1067       H  0.57039589  0.33175858  0.11077485     0.05200
H1068       H  0.57527868  0.29077397  0.09772993    -0.00600
H1069       H  0.52425887  0.26586622  0.11072004     0.00900
H1070       H  0.44421448  0.32845890  0.04974042     0.04600
H1071       H  0.43856609  0.37457307  0.05996802     0.06500
H1072       H  0.39066814  0.30932500  0.06154352     0.07400
C1073       C  0.46443522  0.94901345  0.98282090    -0.22200
C1074       C  0.48454889  0.99365222  0.99088612     0.09700
C1075       C  0.50536394  0.04033117  0.98362238     0.10100
C1076       C  0.50493742  0.04128768  0.96837874    -0.17200
C1077       C  0.48509403  0.99669109  0.96025347    -0.27600
C1078       C  0.46413450  0.94981441  0.96757141     0.18500
C1079       C  0.48373574  0.99076667  0.00695228     0.12400
C1080       C  0.52876322  0.08909355  0.99196785    -0.11900
H1081       H  0.52114362  0.07710291  0.96275531     0.12700
C1082       C  0.43955938  0.89991305  0.95975853    -0.22800
H1083       H  0.44833150  0.91325389  0.98848009     0.08400
C1084       C  0.44405653  0.98910080  0.01511912     0.04700
C1085       C  0.44621065  0.98875206  0.03035773    -0.20000
C1086       C  0.48670348  0.98902858  0.03761801    -0.12300
C1087       C  0.52470141  0.98709700  0.02929615     0.13400
C1088       C  0.52331490  0.98939965  0.01408897    -0.22700
C1089       C  0.39957037  0.98776761  0.00773081    -0.05800
H1090       H  0.41657089  0.98928054  0.03662591     0.14900
C1091       C  0.56594954  0.98019657  0.03586328    -0.16000
H1092       H  0.55291987  0.98917359  0.00770743     0.09300
H1093       H  0.40018696  0.87655099  0.96362267     0.07100
H1094       H  0.46045662  0.87982706  0.96214048     0.08300
H1095       H  0.43798242  0.90352013  0.94783649     0.07400
H1096       H  0.56039800  0.09245611  0.99867429     0.02200
H1097       H  0.50034443  0.09013199  0.99918805     0.02700
H1098       H  0.54371025  0.12218968  0.98460788     0.06200
H1099       H  0.37166879  0.98619225  0.01571168     0.05200
H1100       H  0.38050030  0.95392941  0.00068982    -0.00600
H1101       H  0.41221365  0.02193124  0.00095259     0.00900
H1102       H  0.56693143  0.94849096  0.03034845     0.04600
H1103       H  0.56038111  0.97035583  0.04753636     0.06500
H1104       H  0.60284053  0.01496812  0.03428587     0.07400
C1105       C  0.02371969  0.47666564  0.01438986    -0.22200
C1106       C  0.01004049  0.50826668  0.00714167     0.09700
C1107       C  0.99749756  0.53947874  0.01527450     0.10100
C1108       C  0.99802961  0.53765219  0.03051994    -0.17200
C1109       C  0.01165944  0.50599428  0.03776849    -0.27600
C1110       C  0.02488630  0.47523014  0.02962028     0.18500
C1111       C  0.00794749  0.50717779  0.99103566     0.12400
C1112       C  0.98430906  0.57517810  0.00786147    -0.11900
H1113       H  0.98804930  0.56122730  0.03682955     0.12700
C1114       C  0.03914019  0.43959061  0.03658589    -0.22800
H1115       H  0.03309309  0.45257805  0.00810534     0.08400
C1116       C  0.05204923  0.53060620  0.98249565     0.04700
C1117       C  0.04791057  0.52860763  0.96727946    -0.20000
C1118       C  0.00067969  0.50432059  0.96046113    -0.12300
C1119       C  0.95653170  0.47987674  0.96902722     0.13400
C1120       C  0.96080168  0.48183516  0.98421786    -0.22700
C1121       C  0.10329866  0.55874053  0.98943970    -0.05800
H1122       H  0.08162243  0.54708108  0.96066440     0.14900
C1123       C  0.90451149  0.45013124  0.96257451    -0.16000
H1124       H  0.92705928  0.46319418  0.99082024     0.09300
H1125       H  0.07780099  0.44972910  0.03318100     0.07100
H1126       H  0.01259021  0.40053518  0.03298635     0.08300
H1127       H  0.03823419  0.44015942  0.04861176     0.07400
H1128       H  0.95006682  0.55377857  0.00110855     0.02200
H1129       H  0.01603536  0.60149437  0.00082029     0.02700
H1130       H  0.97680376  0.59782155  0.01582982     0.06200
H1131       H  0.13372054  0.57584178  0.98118735     0.05200
H1132       H  0.11000100  0.53269214  0.99620133    -0.00600
H1133       H  0.10560429  0.58939749  0.99639549     0.00900
H1134       H  0.88615079  0.41083646  0.96667761     0.04600
H1135       H  0.90452921  0.44826904  0.95056093     0.06500
H1136       H  0.88159132  0.46726409  0.96588115     0.07400
C1137       C  0.04674705  0.81667219  0.09319759    -0.22200
C1138       C  0.00927320  0.77638693  0.08528013     0.09700
C1139       C  0.97110211  0.78157694  0.07838644     0.10100
C1140       C  0.97169827  0.82748283  0.07939597    -0.17200
C1141       C  0.00954048  0.86834763  0.08717787    -0.27600
C1142       C  0.04701381  0.86239217  0.09447537     0.18500
C1143       C  0.00982124  0.72848113  0.08476355     0.12400
C1144       C  0.93032625  0.73896081  0.06975916    -0.11900
H1145       H  0.94300528  0.83182542  0.07378722     0.12700
C1146       C  0.08646817  0.90199632  0.10422248    -0.22800
H1147       H  0.07540018  0.81195486  0.09869946     0.08400
C1148       C  0.04124232  0.72132103  0.07505882     0.04700
C1149       C  0.04042578  0.67515735  0.07505107    -0.20000
C1150       C  0.00882876  0.63611822  0.08452004    -0.12300
C1151       C  0.97827975  0.64395653  0.09451890     0.13400
C1152       C  0.97876382  0.68989334  0.09435124    -0.17900
C1153       C  0.07501513  0.76214306  0.06461254    -0.05800
H1154       H  0.06395501  0.66918609  0.06745799     0.14900
C1155       C  0.94642133  0.60600357  0.10593863    -0.16000
H1156       H  0.95533503  0.69605033  0.10194260     0.09300
H1157       H  0.12429622  0.91610072  0.09935280     0.07100
H1158       H  0.08551995  0.88511149  0.11497960     0.08300
H1159       H  0.08060544  0.93417873  0.10634881     0.07400
H1160       H  0.90848622  0.70590374  0.07692172     0.02200
H1161       H  0.94744447  0.72827472  0.06081946     0.02700
H1162       H  0.90375386  0.74954204  0.06489638     0.06200
H1163       H  0.09642444  0.75002380  0.05757358     0.05200
H1164       H  0.10246638  0.79602121  0.07073702    -0.00600
H1165       H  0.05205958  0.77216732  0.05751409     0.00900
H1166       H  0.95678942  0.62396274  0.11682347     0.04600
H1167       H  0.95149908  0.57276047  0.10638278     0.06500
H1168       H  0.90608438  0.59306625  0.10389885     0.07400
C1169       C  0.03828591  0.21999083  0.07258279    -0.22200
C1170       C  0.00516069  0.22598292  0.08171211     0.09700
C1171       C  0.97148518  0.18578107  0.09061707     0.10100
C1172       C  0.97254087  0.14059187  0.09044188    -0.17200
C1173       C  0.00637879  0.13467453  0.08151597    -0.27600
C1174       C  0.03883110  0.17455380  0.07215390     0.18500
C1175       C  0.00608849  0.27464781  0.08162444     0.12400
C1176       C  0.93490608  0.19085211  0.10039494    -0.11900
H1177       H  0.94745009  0.11001815  0.09753036     0.12700
C1178       C  0.07282500  0.17022567  0.06111422    -0.22800
H1179       H  0.06335787  0.25081522  0.06555604     0.08400
C1180       C  0.04013273  0.31518455  0.09035627     0.04700
C1181       C  0.03978169  0.36072844  0.08986190    -0.20000
C1182       C  0.00642739  0.36677564  0.08073436    -0.12300
C1183       C  0.97370179  0.32651401  0.07151485     0.13400
C1184       C  0.97332917  0.28064064  0.07233005    -0.22700
C1185       C  0.07651709  0.31014516  0.10024550    -0.05800
H1186       H  0.06520189  0.39157106  0.09681376     0.14900
C1187       C  0.94056199  0.33087438  0.06017226    -0.16000
H1188       H  0.94809382  0.24958865  0.06540072     0.09300
H1189       H  0.11272996  0.19698745  0.06388401     0.07100
H1190       H  0.06475745  0.17987505  0.05018339     0.08300
H1191       H  0.06752541  0.13191184  0.06025192     0.07400
H1192       H  0.90947365  0.19890455  0.09377810     0.02200
H1193       H  0.95577734  0.22212345  0.10819882     0.02700
H1194       H  0.91136633  0.15588258  0.10669929     0.06200
H1195       H  0.10041092  0.34536743  0.10639604     0.05200
H1196       H  0.10163118  0.30137064  0.09373544    -0.00600
H1197       H  0.05546402  0.27935726  0.10818259     0.00900
H1198       H  0.94851550  0.31993952  0.04942008     0.04600
H1199       H  0.94687765  0.36946967  0.05891218     0.06500
H1200       H  0.90042082  0.30506943  0.06292240     0.07400
C1201       C  0.97105555  0.95066110  0.01698806    -0.22200
C1202       C  0.00210183  0.99555126  0.00952787     0.09700
C1203       C  0.03482539  0.03935101  0.01737775     0.10100
C1204       C  0.03546031  0.03735403  0.03258814    -0.17200
C1205       C  0.00407428  0.99259793  0.04014689    -0.27600
C1206       C  0.97207249  0.94830060  0.03220769     0.18500
C1207       C  0.00062328  0.99570467  0.99345548     0.12400
C1208       C  0.06917088  0.08807106  0.00968565    -0.11900
H1209       H  0.06008512  0.07122041  0.03863972     0.12700
C1210       C  0.94029136  0.89754012  0.03923632    -0.22800
H1211       H  0.94654833  0.91693129  0.01084916     0.08400
C1212       C  0.02744058  0.97848283  0.98511221     0.04700
C1213       C  0.02585657  0.98038049  0.96991097    -0.20000
C1214       C  0.99792422  0.99904925  0.96273435    -0.12300
C1215       C  0.97057637  0.01599844  0.97128074     0.13400
C1216       C  0.97249508  0.01407188  0.98650925    -0.22700
C1217       C  0.05815838  0.95856282  0.99227961    -0.05800
H1218       H  0.04688405  0.96723507  0.96363097     0.14900
C1219       C  0.93883528  0.03578446  0.96467959    -0.16000
H1220       H  0.95197945  0.02709566  0.99310718     0.09300
H1221       H  0.94961412  0.87006901  0.03436539     0.07100
H1222       H  0.89985557  0.88432104  0.03726850     0.08300
H1223       H  0.94655163  0.89755283  0.05107333     0.07400
H1224       H  0.04651582  0.10035989  0.00329566     0.02200
H1225       H  0.09461021  0.08271177  0.00225199     0.02700
H1226       H  0.09275892  0.11857013  0.01745669     0.06200
H1227       H  0.07735175  0.94711504  0.98417582     0.05200
H1228       H  0.03335096  0.92514023  0.99899812    -0.00600
H1229       H  0.08736338  0.98809815  0.99932618     0.00900
H1230       H  0.91966406  0.04612183  0.97310107     0.04600
H1231       H  0.90914789  0.00648079  0.95769155     0.06500
H1232       H  0.96288666  0.07021319  0.95823397     0.07400
C1233       C  0.46583982  0.47906001  0.48660170    -0.22200
C1234       C  0.51114651  0.51480987  0.49301785     0.09700
C1235       C  0.55094082  0.54966617  0.48421086     0.10100
C1236       C  0.54456311  0.54780884  0.46908334    -0.17200
C1237       C  0.49927963  0.51182933  0.46254673    -0.27600
C1238       C  0.45897666  0.47752584  0.47149635     0.18500
C1239       C  0.51558049  0.51596294  0.50904016     0.12400
C1240       C  0.60009850  0.58866437  0.49080016    -0.11900
H1241       H  0.57543280  0.57416996  0.46229483     0.12700
C1242       C  0.40750867  0.44050383  0.46573966    -0.22800
H1243       H  0.43513934  0.45292082  0.49348404     0.08400
C1244       C  0.50050480  0.54421267  0.51761372     0.04700
C1245       C  0.50578925  0.54460544  0.53275917    -0.20000
C1246       C  0.52494161  0.51666260  0.53952096    -0.12300
C1247       C  0.54046569  0.48863487  0.53088183     0.13400
C1248       C  0.53532131  0.48851803  0.51572542    -0.22700
C1249       C  0.47828066  0.57336957  0.51077154    -0.05800
H1250       H  0.49363049  0.56575666  0.53940164     0.14900
C1251       C  0.56403882  0.45982542  0.53715501    -0.16000
H1252       H  0.54719078  0.46719645  0.50904769     0.09300
H1253       H  0.37875229  0.44632364  0.47134342     0.07100
H1254       H  0.39939134  0.40151259  0.46786761     0.08300
H1255       H  0.40331730  0.44478567  0.45401019     0.07400
H1256       H  0.61732734  0.56980036  0.49688421     0.02200
H1257       H  0.59350552  0.61297550  0.49835777     0.02700
H1258       H  0.62727291  0.61313921  0.48237814     0.06200
H1259       H  0.46834676  0.59331840  0.51904260     0.05200
H1260       H  0.44351051  0.54727170  0.50474401    -0.00600
H1261       H  0.50575888  0.60181093  0.50312345     0.00900
H1262       H  0.53981859  0.41912531  0.53473461     0.04600
H1263       H  0.56991012  0.46451991  0.54904888     0.06500
H1264       H  0.60153657  0.47334779  0.53211479     0.07400
C1265       C  0.43688777  0.93554839  0.48347181    -0.22200
C1266       C  0.48310829  0.96178797  0.49071370     0.09700
C1267       C  0.52789222  0.98912725  0.48265526     0.10100
C1268       C  0.52529478  0.99049527  0.46746186    -0.17200
C1269       C  0.47906445  0.96437085  0.46014887    -0.27600
C1270       C  0.43411819  0.93680114  0.46827010     0.18500
C1271       C  0.48375000  0.96092732  0.50677915     0.12400
C1272       C  0.57842376  0.01602838  0.49007849    -0.11900
H1273       H  0.55965552  0.01129739  0.46122239     0.12700
C1274       C  0.38251161  0.91013720  0.46143882    -0.22800
H1275       H  0.40261638  0.91482492  0.48975846     0.08400
C1276       C  0.48423188  0.99982503  0.51503345     0.04700
C1277       C  0.48735587  0.99871686  0.53021844    -0.20000
C1278       C  0.48865584  0.95888652  0.53742777    -0.12300
C1279       C  0.48637450  0.91891936  0.52904422     0.13400
C1280       C  0.48432221  0.92077426  0.51381683    -0.22700
C1281       C  0.48061416  0.04204121  0.50781447    -0.05800
H1282       H  0.48802080  0.02890430  0.53650992     0.14900
C1283       C  0.48764813  0.87495729  0.53588092    -0.16000
H1284       H  0.48352845  0.89092344  0.50731326     0.09300
H1285       H  0.35886758  0.92428599  0.46634914     0.07100
H1286       H  0.36454453  0.86907751  0.46353491     0.08300
H1287       H  0.38292319  0.91622376  0.44957724     0.07400
H1288       H  0.58453116  0.98851787  0.49630442     0.02200
H1289       H  0.58008226  0.04494807  0.49764464     0.02700
H1290       H  0.60965136  0.03512742  0.48214099     0.06200
H1291       H  0.48093769  0.06912557  0.51587836     0.05200
H1292       H  0.44499167  0.02634305  0.50154316    -0.00600
H1293       H  0.51278904  0.06304344  0.50031671     0.00900
H1294       H  0.45400271  0.85324665  0.54282944     0.04600
H1295       H  0.52237620  0.88883189  0.54241670     0.06500
H1296       H  0.48766225  0.84864604  0.52759454     0.07400
C1297       C  0.96641024  0.49991577  0.48546880    -0.22200
C1298       C  0.01406711  0.52810084  0.49182987     0.09700
C1299       C  0.05663830  0.55590797  0.48295251     0.10100
C1300       C  0.05058429  0.55483129  0.46783812    -0.17200
C1301       C  0.00307205  0.52595216  0.46138982    -0.27600
C1302       C  0.96019811  0.49873789  0.47033660     0.18500
C1303       C  0.01857616  0.52857152  0.50784115     0.12400
C1304       C  0.10840720  0.58654801  0.48943987    -0.11900
H1305       H  0.08331894  0.57583461  0.46099550     0.12700
C1306       C  0.90730948  0.46972020  0.46443798    -0.22800
H1307       H  0.93376268  0.47916134  0.49238492     0.08400
C1308       C  0.00995463  0.56142663  0.51648803     0.04700
C1309       C  0.01547681  0.56111628  0.53161016    -0.20000
C1310       C  0.02943046  0.52868846  0.53828729    -0.12300
C1311       C  0.03933048  0.49660648  0.52951041     0.13400
C1312       C  0.03301173  0.49653259  0.51440723    -0.22700
C1313       C  0.99498966  0.59677972  0.50973431    -0.05800
H1314       H  0.00786956  0.58566066  0.53829167     0.14900
C1315       C  0.05865726  0.46360437  0.53547332    -0.16000
H1316       H  0.04040280  0.47199393  0.50764449     0.09300
H1317       H  0.88383380  0.48360933  0.46960871     0.07100
H1318       H  0.89095914  0.42914404  0.46702283     0.08300
H1319       H  0.90507632  0.47383661  0.45255550     0.07400
H1320       H  0.11835952  0.56155915  0.49557211     0.02200
H1321       H  0.10915049  0.61529227  0.49692135     0.02700
H1322       H  0.13752491  0.60627542  0.48095220     0.06200
H1323       H  0.99005736  0.62021634  0.51804225     0.05200
H1324       H  0.95883761  0.57490479  0.50382165    -0.00600
H1325       H  0.02454228  0.62235400  0.50200135     0.00900
H1326       H  0.03026035  0.42343994  0.53361948     0.04600
H1327       H  0.06787946  0.46941854  0.54718563     0.06500
H1328       H  0.09392533  0.47219238  0.52973880     0.07400
C1329       C  0.81525213  0.56336279  0.41080519    -0.22200
C1330       C  0.77406770  0.52427622  0.41800134     0.09700
C1331       C  0.77899627  0.48582409  0.42480340     0.10100
C1332       C  0.82540560  0.48736223  0.42426788    -0.17200
C1333       C  0.86708959  0.52654019  0.41708972    -0.27600
C1334       C  0.86182278  0.56510144  0.41022702     0.18500
C1335       C  0.72550908  0.52340412  0.41779229     0.12400
C1336       C  0.73529600  0.44331161  0.43264239    -0.11900
H1337       H  0.82918814  0.45786123  0.42957451     0.12700
C1338       C  0.90416698  0.60716444  0.40183101    -0.22800
H1339       H  0.81064927  0.59237812  0.40549776     0.08400
C1340       C  0.71486828  0.55185369  0.42771131     0.04700
C1341       C  0.66806468  0.54954111  0.42702951    -0.20000
C1342       C  0.63201027  0.51959274  0.41660813    -0.12300
C1343       C  0.64356789  0.49251893  0.40633989     0.13400
C1344       C  0.68999440  0.49425103  0.40722270    -0.22700
C1345       C  0.75268541  0.58412052  0.43905864    -0.05800
H1346       H  0.65920850  0.57051037  0.43481221     0.14900
C1347       C  0.60910953  0.46328471  0.39394488    -0.16000
H1348       H  0.69897173  0.47334127  0.39944747     0.09300
H1349       H  0.93562259  0.63115254  0.40926258     0.07100
H1350       H  0.89205379  0.63184176  0.39647712     0.08300
H1351       H  0.91756869  0.59129519  0.39322800     0.07400
H1352       H  0.70376030  0.42208923  0.42494282     0.02200
H1353       H  0.72242311  0.45865032  0.44152955     0.02700
H1354       H  0.74569065  0.41656079  0.43747890     0.06200
H1355       H  0.73815129  0.60356615  0.44604088     0.05200
H1356       H  0.78765424  0.61322787  0.43371212    -0.00600
H1357       H  0.76175696  0.56036942  0.44612288     0.00900
H1358       H  0.62960687  0.47738964  0.38350663     0.04600
H1359       H  0.57507404  0.46699154  0.39325543     0.06500
H1360       H  0.59721858  0.42280507  0.39507792     0.07400
C1361       C  0.21322710  0.54100844  0.42683383    -0.22200
C1362       C  0.21812869  0.50847253  0.41717000     0.09700
C1363       C  0.17803881  0.47786913  0.40776939     0.10100
C1364       C  0.13400718  0.48113445  0.40810093    -0.17200
C1365       C  0.12931568  0.51441020  0.41759018    -0.27600
C1366       C  0.16917949  0.54410018  0.42729947     0.18500
C1367       C  0.26568676  0.50712054  0.41717121     0.12400
C1368       C  0.18214301  0.44253109  0.39723368    -0.11900
H1369       H  0.10337000  0.45818883  0.40074611     0.12700
C1370       C  0.16620080  0.57780611  0.43870916    -0.22800
H1371       H  0.24389420  0.56376084  0.43421092     0.08400
C1372       C  0.30972511  0.54593006  0.41076891     0.04700
C1373       C  0.35426232  0.54381472  0.41141023    -0.20000
C1374       C  0.35623378  0.50403915  0.41843097    -0.12300
C1375       C  0.31168735  0.46517474  0.42500957     0.13400
C1376       C  0.26701779  0.46718020  0.42410422    -0.22700
C1377       C  0.30959897  0.58934032  0.40312850    -0.05800
H1378       H  0.38783686  0.57349482  0.40627970     0.14900
C1379       C  0.30908802  0.42208845  0.43363431    -0.16000
H1380       H  0.23302479  0.43785064  0.42917544     0.09300
H1381       H  0.19539038  0.61748348  0.43655104     0.07100
H1382       H  0.17319671  0.56679187  0.44958271     0.08300
H1383       H  0.12911019  0.57547849  0.43923875     0.07400
H1384       H  0.18752995  0.41421456  0.40325783     0.02200
H1385       H  0.21470813  0.46412640  0.38988283     0.02700
H1386       H  0.14774196  0.42208489  0.39046144     0.06200
H1387       H  0.34702327  0.61591018  0.39843110     0.05200
H1388       H  0.29965156  0.61061339  0.41091018    -0.00600
H1389       H  0.28165629  0.57492563  0.39415889     0.00900
H1390       H  0.29426922  0.42177109  0.44466693     0.04600
H1391       H  0.34556383  0.42402439  0.43519413     0.06500
H1392       H  0.28312395  0.38596415  0.42817072     0.07400
C1393       C  0.99853376  0.93538685  0.51589034    -0.22200
C1394       C  0.98726579  0.96903296  0.50885843     0.09700
C1395       C  0.97964022  0.00341693  0.51707418     0.10100
C1396       C  0.98248705  0.00266695  0.53226815    -0.17200
C1397       C  0.99346096  0.96876389  0.53939772    -0.27600
C1398       C  0.00295349  0.93553225  0.53105507     0.18500
C1399       C  0.98582557  0.96907264  0.49281787     0.12400
C1400       C  0.96895430  0.04108539  0.50978351    -0.11900
H1401       H  0.97586424  0.02854508  0.53862834     0.12700
C1402       C  0.02067232  0.90187883  0.53753913    -0.22800
H1403       H  0.00557326  0.90994609  0.50944396     0.08400
C1404       C  0.02999041  0.99759977  0.48461541     0.04700
C1405       C  0.02685155  0.99715880  0.46942295    -0.20000
C1406       C  0.98062793  0.96851892  0.46227325    -0.12300
C1407       C  0.93621012  0.94017393  0.47053870     0.13400
C1408       C  0.93955689  0.94055473  0.48574690    -0.22700
C1409       C  0.08032471  0.02845053  0.49191705    -0.05800
H1410       H  0.06077163  0.01885091  0.46306419     0.14900
C1411       C  0.88454750  0.91092419  0.46383781    -0.16000
H1412       H  0.90571825  0.91910848  0.49216056     0.09300
H1413       H  0.05642368  0.90981317  0.53223176     0.07100
H1414       H  0.99200218  0.86186626  0.53560266     0.08300
H1415       H  0.02855186  0.90765988  0.54932001     0.07400
H1416       H  0.93384827  0.02109279  0.50329505     0.02200
H1417       H  0.00063900  0.06571196  0.50248565     0.02700
H1418       H  0.96419386  0.06540905  0.51781456     0.06200
H1419       H  0.11103741  0.04863113  0.48389062     0.05200
H1420       H  0.08930484  0.00352196  0.49845602    -0.00600
H1421       H  0.07933387  0.05685495  0.49916565     0.00900
H1422       H  0.86804769  0.87032708  0.46642273     0.04600
H1423       H  0.88446657  0.91518996  0.45190125     0.06500
H1424       H  0.85989294  0.92438833  0.46842804     0.07400
C1425       C  0.78971896  0.99857823  0.42536965    -0.22200
C1426       C  0.75310362  0.96574354  0.41556002     0.09700
C1427       C  0.76306761  0.93430674  0.40668536     0.10100
C1428       C  0.80982985  0.93664948  0.40777655    -0.17200
C1429       C  0.84682652  0.96966101  0.41756253    -0.27600
C1430       C  0.83616724  0.00037928  0.42670833     0.18500
C1431       C  0.70404987  0.96405268  0.41507769     0.12400
C1432       C  0.72429814  0.89829016  0.39611249    -0.11900
H1433       H  0.81779580  0.91297564  0.40081523     0.12700
C1434       C  0.87126695  0.03353105  0.43849405    -0.22800
H1435       H  0.78140403  0.02204734  0.43231911     0.08400
C1436       C  0.66498975  0.93387503  0.42482941     0.04700
C1437       C  0.61956926  0.93448523  0.42423827    -0.20000
C1438       C  0.61257177  0.96486039  0.41417527    -0.12300
C1439       C  0.65123240  0.99378470  0.40405890     0.13400
C1440       C  0.69676414  0.99346086  0.40478720    -0.22700
C1441       C  0.67149572  0.90138754  0.43590420    -0.05800
H1442       H  0.58980154  0.91206550  0.43189388     0.14900
C1443       C  0.64533847  0.02388615  0.39203029    -0.16000
H1444       H  0.72668290  0.01594046  0.39717371     0.09300
H1445       H  0.85087747  0.02382674  0.44902690     0.07100
H1446       H  0.88418726  0.07357351  0.43596248     0.08300
H1447       H  0.90452957  0.02899784  0.44006956     0.07400
H1448       H  0.71495294  0.91952268  0.38812658     0.02200
H1449       H  0.68962476  0.87143171  0.40204789     0.02700
H1450       H  0.73807830  0.87625940  0.39003858     0.06200
H1451       H  0.63722240  0.87999353  0.44266535     0.05200
H1452       H  0.70338940  0.92527320  0.44323241    -0.00600
H1453       H  0.67934117  0.87395916  0.43032219     0.00900
H1454       H  0.67273919  0.06449478  0.39361247     0.04600
H1455       H  0.60702516  0.01877391  0.39134398     0.06500
H1456       H  0.65298420  0.01181004  0.38141891     0.07400
C1457       C  0.17459778  0.94627651  0.42605096    -0.22200
C1458       C  0.21137397  0.97851271  0.41618162     0.09700
C1459       C  0.20179136  0.00970709  0.40706814     0.10100
C1460       C  0.15530428  0.00797199  0.40804918    -0.17200
C1461       C  0.11819584  0.97557387  0.41789414    -0.27600
C1462       C  0.12829513  0.94481552  0.42719600     0.18500
C1463       C  0.25989650  0.97922724  0.41572725     0.12400
C1464       C  0.24059169  0.04463916  0.39631870    -0.11900
H1465       H  0.14756077  0.03148530  0.40093680     0.12700
C1466       C  0.09252415  0.91175999  0.43887938    -0.22800
H1467       H  0.18254523  0.92280406  0.43312678     0.08400
C1468       C  0.29960091  0.00982448  0.42524002     0.04700
C1469       C  0.34430770  0.00784248  0.42476855    -0.20000
C1470       C  0.34974140  0.97535678  0.41514610    -0.12300
C1471       C  0.31027755  0.94568718  0.40534451     0.13400
C1472       C  0.26574040  0.94798376  0.40579436    -0.22700
C1473       C  0.29453154  0.04422566  0.43592191    -0.05800
H1474       H  0.37473962  0.03092571  0.43216241     0.14900
C1475       C  0.31537549  0.91277452  0.39409774    -0.16000
H1476       H  0.23512619  0.92511236  0.39842682     0.09300
H1477       H  0.11222535  0.92169049  0.44952321     0.07100
H1478       H  0.07991821  0.87171429  0.43646554     0.08300
H1479       H  0.05899339  0.91606643  0.44010792     0.07400
H1480       H  0.24951061  0.02254683  0.38854012     0.02200
H1481       H  0.27547047  0.07170731  0.40213019     0.02700
H1482       H  0.22704234  0.06645436  0.39002055     0.06200
H1483       H  0.32920122  0.06578206  0.44251607     0.05200
H1484       H  0.26274831  0.02176111  0.44343895    -0.00600
H1485       H  0.28727305  0.07153801  0.43001789     0.00900
H1486       H  0.31846631  0.88203964  0.39946154     0.04600
H1487       H  0.34928738  0.93567370  0.38733107     0.06500
H1488       H  0.28223635  0.89504207  0.38674990     0.07400
C1489       C  0.45652685  0.46152077  0.15263695    -0.22200
C1490       C  0.49870001  0.49912566  0.15989417     0.09700
C1491       C  0.53930465  0.53636792  0.15183983     0.10100
C1492       C  0.53680044  0.53522969  0.13661030    -0.17200
C1493       C  0.49438257  0.49788186  0.12918977    -0.27600
C1494       C  0.45365209  0.46030970  0.13739317     0.18500
C1495       C  0.49925638  0.49901413  0.17597913     0.12400
C1496       C  0.58500292  0.57757699  0.15934862    -0.11900
H1497       H  0.56805750  0.56413373  0.13047325     0.12700
C1498       C  0.40759669  0.41798936  0.13030378    -0.22800
H1499       H  0.42564065  0.43300874  0.15898576     0.08400
C1500       C  0.47486044  0.51963977  0.18406696     0.04700
C1501       C  0.47605799  0.51845618  0.19928351    -0.20000
C1502       C  0.50117025  0.49722897  0.20657572    -0.12300
C1503       C  0.52494776  0.47576428  0.19846141     0.13400
C1504       C  0.52400728  0.47735174  0.18322468    -0.22700
C1505       C  0.44801669  0.54329102  0.17662881    -0.05800
H1506       H  0.45781162  0.53475972  0.20554739     0.14900
C1507       C  0.54976517  0.44917034  0.20541870    -0.16000
H1508       H  0.54212479  0.46097591  0.17693358     0.09300
H1509       H  0.38673211  0.43319810  0.12429321     0.07100
H1510       H  0.38129010  0.39073617  0.13842506     0.08300
H1511       H  0.41883737  0.39707518  0.12276699     0.07400
H1512       H  0.60317769  0.56094468  0.16602540     0.02200
H1513       H  0.57369254  0.59938750  0.16649340     0.02700
H1514       H  0.61321597  0.60403399  0.15145181     0.06200
H1515       H  0.43150605  0.55822184  0.18457718     0.05200
H1516       H  0.41703813  0.51486205  0.16978453    -0.00600
H1517       H  0.47488489  0.57495739  0.16966745     0.00900
H1518       H  0.53185326  0.40991541  0.20130776     0.04600
H1519       H  0.54636125  0.44706740  0.21740838     0.06500
H1520       H  0.59034100  0.46893430  0.20254004     0.07400
C1521       C  0.48559552  0.54246258  0.31821493    -0.22200
C1522       C  0.49777640  0.51127349  0.32629870     0.09700
C1523       C  0.51160711  0.47945550  0.31906231     0.10100
C1524       C  0.51320076  0.47971343  0.30381969    -0.17200
C1525       C  0.50062485  0.51059322  0.29571947    -0.27600
C1526       C  0.48686217  0.54257843  0.30297532     0.18500
C1527       C  0.49601020  0.51260614  0.34235669     0.12400
C1528       C  0.52453618  0.44525161  0.32745081    -0.11900
H1529       H  0.52357968  0.45520004  0.29818059     0.12700
C1530       C  0.47431667  0.57792550  0.29502343    -0.22800
H1531       H  0.47523050  0.56700494  0.32384470     0.08400
C1532       C  0.53746686  0.54835692  0.35049189     0.04700
C1533       C  0.53447020  0.54738818  0.36571265    -0.20000
C1534       C  0.49084331  0.51161609  0.37298553    -0.12300
C1535       C  0.44853692  0.47692085  0.36473029     0.13400
C1536       C  0.45209391  0.47744121  0.34952133    -0.22700
C1537       C  0.58498606  0.58708281  0.34309102    -0.05800
H1538       H  0.56675942  0.57414302  0.37198612     0.14900
C1539       C  0.39838641  0.44034640  0.37139335    -0.16000
H1540       H  0.42005510  0.45063860  0.34316465     0.09300
H1541       H  0.50049465  0.61720729  0.29852299     0.07100
H1542       H  0.43520336  0.56837298  0.29765490     0.08300
H1543       H  0.47748595  0.57643032  0.28306801     0.07400
H1544       H  0.49173496  0.41859669  0.33409716     0.02200
H1545       H  0.55702338  0.46794059  0.33472513     0.02700
H1546       H  0.53469411  0.42294168  0.32012532     0.06200
H1547       H  0.61400727  0.61198056  0.35105588     0.05200
H1548       H  0.57655482  0.61098335  0.33588796    -0.00600
H1549       H  0.60085907  0.56803600  0.33648891     0.00900
H1550       H  0.36845908  0.44557188  0.36631082     0.04600
H1551       H  0.39643559  0.44560675  0.38321336     0.06500
H1552       H  0.38993193  0.40120708  0.36934551     0.07400
C1553       C  0.48168131  0.78956185  0.23666394    -0.22200
C1554       C  0.50909872  0.78098648  0.24733739     0.09700
C1555       C  0.53777459  0.81901482  0.25752636     0.10100
C1556       C  0.53690754  0.86434179  0.25712771    -0.17200
C1557       C  0.50818340  0.87245927  0.24672682    -0.27600
C1558       C  0.48137547  0.83513077  0.23608159     0.18500
C1559       C  0.50699757  0.73172225  0.24767829     0.12400
C1560       C  0.56915190  0.81164115  0.26879754    -0.11900
H1561       H  0.55797426  0.89322322  0.26514855     0.12700
C1562       C  0.45372057  0.84259608  0.22364693    -0.22800
H1563       H  0.46062258  0.76056216  0.22866783     0.08400
C1564       C  0.47124939  0.69170765  0.25626304     0.04700
C1565       C  0.47100396  0.64585462  0.25640572    -0.20000
C1566       C  0.50525050  0.63884699  0.24800659    -0.12300
C1567       C  0.53941031  0.67833605  0.23880260     0.13400
C1568       C  0.54046012  0.72462782  0.23901345    -0.22700
C1569       C  0.43323813  0.69737826  0.26520174    -0.05800
H1570       H  0.44424487  0.61545056  0.26325486     0.14900
C1571       C  0.57342207  0.67261381  0.22808337    -0.16000
H1572       H  0.56690249  0.75515991  0.23213303     0.09300
H1573       H  0.41294731  0.81466709  0.22444113     0.07100
H1574       H  0.46829960  0.83685417  0.21320687     0.08300
H1575       H  0.45848056  0.88081963  0.22326683     0.07400
H1576       H  0.59747986  0.80480492  0.26335190     0.02200
H1577       H  0.54479818  0.77885731  0.27578082     0.02700
H1578       H  0.58944374  0.84519549  0.27589656     0.06200
H1579       H  0.40777344  0.66230165  0.27121736     0.05200
H1580       H  0.40984865  0.70645881  0.25798397    -0.00600
H1581       H  0.45273902  0.72812413  0.27323743     0.00900
H1582       H  0.56690545  0.68297438  0.21705712     0.04600
H1583       H  0.56661887  0.63371578  0.22727894     0.06500
H1584       H  0.61333665  0.69816212  0.23112642     0.07400
C1585       C  0.52667542  0.22068116  0.24174236    -0.22200
C1586       C  0.49716737  0.22659827  0.25228717     0.09700
C1587       C  0.46742259  0.18657093  0.26180985     0.10100
C1588       C  0.46868156  0.14153734  0.26074133    -0.17200
C1589       C  0.49890433  0.13578643  0.25033175    -0.27600
C1590       C  0.52747969  0.17555137  0.24048508     0.18500
C1591       C  0.49697806  0.27468648  0.25276916     0.12400
C1592       C  0.43438684  0.19144835  0.27303140    -0.11900
H1593       H  0.44649718  0.11090146  0.26818162     0.12700
C1594       C  0.55746326  0.17128461  0.22813136    -0.22800
H1595       H  0.54860929  0.25130380  0.23426451     0.08400
C1596       C  0.53166122  0.31537353  0.26135142     0.04700
C1597       C  0.53121637  0.36090949  0.26097748    -0.20000
C1598       C  0.49745782  0.36687347  0.25200896    -0.12300
C1599       C  0.46400341  0.32641599  0.24296610     0.13400
C1600       C  0.46348435  0.28049768  0.24375271    -0.22700
C1601       C  0.56945051  0.31082858  0.27073531    -0.05800
H1602       H  0.55734311  0.39202837  0.26773085     0.14900
C1603       C  0.43052540  0.33072314  0.23171769    -0.16000
H1604       H  0.43792063  0.24941944  0.23688217     0.09300
H1605       H  0.59800900  0.19896650  0.22969094     0.07100
H1606       H  0.54480585  0.17967485  0.21772567     0.08300
H1607       H  0.55291107  0.13331180  0.22699923     0.07400
H1608       H  0.40649267  0.19893896  0.26757951     0.02200
H1609       H  0.45766588  0.22299204  0.28052350     0.02700
H1610       H  0.41353510  0.15659050  0.27960030     0.06200
H1611       H  0.59399947  0.34626426  0.27671616     0.05200
H1612       H  0.59379642  0.30204867  0.26385450    -0.00600
H1613       H  0.54969522  0.28025892  0.27881551     0.00900
H1614       H  0.43768497  0.31909410  0.22096504     0.04600
H1615       H  0.43724661  0.36940662  0.23030365     0.06500
H1616       H  0.39046483  0.30544133  0.23466643     0.07400
C1617       C  0.54185827  0.04997842  0.14997832    -0.22200
C1618       C  0.50229395  0.01164029  0.15787744     0.09700
C1619       C  0.46129726  0.97232329  0.15047818     0.10100
C1620       C  0.46105062  0.97185433  0.13523939    -0.17200
C1621       C  0.50108282  0.00966519  0.12717324    -0.27600
C1622       C  0.54194917  0.04964782  0.13471735     0.18500
C1623       C  0.50480049  0.01297887  0.17393523     0.12400
C1624       C  0.41819960  0.93048776  0.15869471    -0.11900
H1625       H  0.42965526  0.94123081  0.12960716     0.12700
C1626       C  0.58524452  0.09281937  0.12691536    -0.22800
H1627       H  0.57295833  0.08018641  0.15583276     0.08400
C1628       C  0.53324397  0.99579366  0.18155375     0.04700
C1629       C  0.53334962  0.99639069  0.19678890    -0.20000
C1630       C  0.50529404  0.01334675  0.20453389    -0.12300
C1631       C  0.47779550  0.03182245  0.19686884     0.13400
C1632       C  0.47770954  0.03107065  0.18163309    -0.22700
C1633       C  0.56252263  0.97582462  0.17359847    -0.05800
H1634       H  0.55441119  0.98236283  0.20270004     0.14900
C1635       C  0.44951480  0.05404655  0.20429369    -0.16000
H1636       H  0.45645279  0.04482096  0.17569303     0.09300
H1637       H  0.60699791  0.07904347  0.12072374     0.07100
H1638       H  0.61175874  0.12193919  0.13460362     0.08300
H1639       H  0.57080455  0.11115570  0.11944563     0.07400
H1640       H  0.39961520  0.94618583  0.16556987     0.02200
H1641       H  0.43246545  0.91090023  0.16572408     0.02700
H1642       H  0.38943746  0.90226498  0.15125469     0.06200
H1643       H  0.58204128  0.96313561  0.18121649     0.05200
H1644       H  0.59138086  0.00572845  0.16656668    -0.00600
H1645       H  0.53659913  0.94325131  0.16675897     0.00900
H1646       H  0.46366825  0.09300267  0.20028081     0.04600
H1647       H  0.45403315  0.05635871  0.21624898     0.06500
H1648       H  0.40880454  0.03108119  0.20170683     0.07400
C1649       C  0.46657574  0.00610950  0.34813395    -0.22200
C1650       C  0.48728209  0.98137777  0.34045663     0.09700
C1651       C  0.50438413  0.95277226  0.34801719     0.10100
C1652       C  0.50094689  0.95005807  0.36321691    -0.17200
C1653       C  0.48114250  0.97562456  0.37095702    -0.27600
C1654       C  0.46276358  0.00321752  0.36331575     0.18500
C1655       C  0.49046820  0.98578260  0.32446210     0.12400
C1656       C  0.52623224  0.92524834  0.34002836    -0.11900
H1657       H  0.51469579  0.92873082  0.36911757     0.12700
C1658       C  0.43736516  0.02853632  0.37068509    -0.22800
H1659       H  0.45283861  0.02741036  0.34220932     0.08400
C1660       C  0.44886587  0.95507555  0.31560363     0.04700
C1661       C  0.45382981  0.96033542  0.30047717    -0.20000
C1662       C  0.49948904  0.99580966  0.29391918    -0.12300
C1663       C  0.54114955  0.02712437  0.30297872     0.13400
C1664       C  0.53590919  0.02146588  0.31812725    -0.22700
C1665       C  0.39935600  0.91652448  0.32213500    -0.05800
H1666       H  0.42167650  0.93619593  0.29375577     0.14900
C1667       C  0.59099000  0.06724356  0.29699383    -0.16000
H1668       H  0.56744939  0.04504639  0.32513409     0.09300
H1669       H  0.39899294  0.01363527  0.36610976     0.07100
H1670       H  0.45937162  0.06972324  0.36869067     0.08300
H1671       H  0.43307953  0.02206219  0.38256107     0.07400
H1672       H  0.56015550  0.95251595  0.33388229     0.02200
H1673       H  0.49793299  0.89784438  0.33233127     0.02700
H1674       H  0.53740401  0.90429847  0.34758774     0.06200
H1675       H  0.37072047  0.89523256  0.31365687     0.05200
H1676       H  0.38454182  0.93547922  0.32920262    -0.00600
H1677       H  0.40473457  0.88922813  0.32871897     0.00900
H1678       H  0.61799792  0.08914670  0.30577126     0.04600
H1679       H  0.58543148  0.09413962  0.29026367     0.06500
H1680       H  0.60845167  0.04972601  0.29040536     0.07400
C1681       C  0.02361608  0.48309651  0.18216987    -0.22200
C1682       C  0.99934511  0.50387990  0.17426030     0.09700
C1683       C  0.97303512  0.52382770  0.18171355     0.10100
C1684       C  0.97152805  0.52244942  0.19696886    -0.17200
C1685       C  0.99614199  0.50201295  0.20492758    -0.27600
C1686       C  0.02210962  0.48153724  0.19741754     0.18500
C1687       C  0.00086975  0.50305159  0.15815544     0.12400
C1688       C  0.94705442  0.54698774  0.17355634    -0.11900
H1689       H  0.95169072  0.53811860  0.20273597     0.12700
C1690       C  0.04690045  0.45597619  0.20500792    -0.22800
H1691       H  0.04326772  0.46727545  0.17637728     0.08400
C1692       C  0.04155401  0.54087012  0.15024481     0.04700
C1693       C  0.04164881  0.53785549  0.13501137    -0.20000
C1694       C  0.00158102  0.49821330  0.12742734    -0.12300
C1695       C  0.96057787  0.46034933  0.13548390     0.13400
C1696       C  0.96105037  0.46324475  0.15073099    -0.22700
C1697       C  0.08454521  0.58462325  0.15790656    -0.05800
H1698       H  0.07291396  0.56721464  0.12898102     0.14900
C1699       C  0.91665013  0.41609882  0.12824608    -0.16000
H1700       H  0.93005372  0.43431195  0.15695157     0.09300
H1701       H  0.08797500  0.47697714  0.20279016     0.07100
H1702       H  0.03093123  0.41701036  0.20079798     0.08300
H1703       H  0.04113819  0.45306541  0.21691763     0.07400
H1704       H  0.91770114  0.51845940  0.16632441     0.02200
H1705       H  0.97491438  0.57901993  0.16688935     0.02700
H1706       H  0.92866438  0.56131226  0.18103827     0.06200
H1707       H  0.11321461  0.61116851  0.15012345     0.05200
H1708       H  0.10320955  0.57068840  0.16541729    -0.00600
H1709       H  0.07016535  0.60563658  0.16422384     0.00900
H1710       H  0.93035005  0.39581767  0.12130833     0.04600
H1711       H  0.89524119  0.42917119  0.12157916     0.06500
H1712       H  0.89002175  0.38885744  0.13631123     0.07400
C1713       C  0.94357218  0.49207343  0.31813588    -0.22200
C1714       C  0.98990930  0.51519413  0.32535439     0.09700
C1715       C  0.03483624  0.53629564  0.31725821     0.10100
C1716       C  0.03242164  0.53308445  0.30206105    -0.17200
C1717       C  0.98605838  0.50940997  0.29461054    -0.27600
C1718       C  0.94081096  0.48898856  0.30288881     0.18500
C1719       C  0.99068413  0.51589676  0.34144351     0.12400
C1720       C  0.08543504  0.56277586  0.32466228    -0.11900
H1721       H  0.06733154  0.54930004  0.29599979     0.12700
C1722       C  0.88933540  0.46383262  0.29598538    -0.22800
H1723       H  0.90932445  0.47607261  0.32452939     0.08400
C1724       C  0.98222333  0.55017875  0.34944432     0.04700
C1725       C  0.98510981  0.55029930  0.36466642    -0.20000
C1726       C  0.99640467  0.51702393  0.37204499    -0.12300
C1727       C  0.00592437  0.48337392  0.36394316     0.13400
C1728       C  0.00191087  0.48265473  0.34876305    -0.22700
C1729       C  0.97080474  0.58695626  0.34191445    -0.05800
H1730       H  0.97804778  0.57620480  0.37085965     0.14900
C1731       C  0.02293027  0.44956364  0.37072613    -0.16000
H1732       H  0.00905018  0.45687529  0.34252101     0.09300
H1733       H  0.88568302  0.49083664  0.28876157     0.07100
H1734       H  0.85886692  0.45074146  0.30422001     0.08300
H1735       H  0.88323320  0.43031917  0.28972194     0.07400
H1736       H  0.08983473  0.53608784  0.33181366     0.02200
H1737       H  0.08861329  0.59447571  0.33129345     0.02700
H1738       H  0.11685596  0.57826154  0.31670541     0.06200
H1739       H  0.96606209  0.61170912  0.34978861     0.05200
H1740       H  0.93543571  0.56626275  0.33557741    -0.00600
H1741       H  0.00214147  0.61116659  0.33445692     0.00900
H1742       H  0.99401595  0.40958961  0.36885487     0.04600
H1743       H  0.03034274  0.45567393  0.38252170     0.06500
H1744       H  0.05874379  0.45691867  0.36558815     0.07400
C1745       C  0.03384574  0.72981821  0.24049907    -0.22200
C1746       C  0.99665875  0.73450929  0.24795754     0.09700
C1747       C  0.95802325  0.69260100  0.25526533     0.10100
C1748       C  0.95775778  0.64672923  0.25509362    -0.17200
C1749       C  0.99555408  0.64197596  0.24788277    -0.27600
C1750       C  0.03391276  0.68408517  0.24035367     0.18500
C1751       C  0.99894281  0.78381458  0.24801269     0.12400
C1752       C  0.91746498  0.69658026  0.26335229    -0.11900
H1753       H  0.92833555  0.61463008  0.26084379     0.12700
C1754       C  0.07411469  0.68093294  0.23176771    -0.22800
H1755       H  0.06305565  0.76227037  0.23481203     0.08400
C1756       C  0.02878621  0.82145102  0.25815864     0.04700
C1757       C  0.02863466  0.86710268  0.25806581    -0.20000
C1758       C  0.99955188  0.87601149  0.24799749    -0.12300
C1759       C  0.97137233  0.83894774  0.23739275     0.13400
C1760       C  0.97086207  0.79296675  0.23771390    -0.22700
C1761       C  0.06025718  0.81311501  0.26916384    -0.05800
H1762       H  0.05059541  0.89565153  0.26608339     0.14900
C1763       C  0.94325363  0.84705786  0.22521349    -0.16000
H1764       H  0.94888874  0.76420063  0.22974523     0.09300
H1765       H  0.09876393  0.67426823  0.23916101     0.07100
H1766       H  0.09851829  0.71637175  0.22575958     0.08300
H1767       H  0.05640707  0.64996530  0.22369709     0.07400
H1768       H  0.89642096  0.70737884  0.25572385     0.02200
H1769       H  0.93466753  0.72556915  0.27199132     0.02700
H1770       H  0.89020012  0.66034226  0.26854426     0.06200
H1771       H  0.08108513  0.84626794  0.27637576     0.05200
H1772       H  0.08817301  0.80618072  0.26350204    -0.00600
H1773       H  0.03571668  0.78005658  0.27604435     0.00900
H1774       H  0.95648775  0.84052146  0.21464116     0.04600
H1775       H  0.94912814  0.88569369  0.22482683     0.06500
H1776       H  0.90234939  0.81994850  0.22629281     0.07400
C1777       C  0.02217681  0.22515836  0.24248543    -0.22200
C1778       C  0.99230120  0.23187858  0.25271963     0.09700
C1779       C  0.96349496  0.19321820  0.26273199     0.10100
C1780       C  0.96598268  0.14874447  0.26243957    -0.17200
C1781       C  0.99639732  0.14213353  0.25230652    -0.27600
C1782       C  0.02415970  0.18050555  0.24199619     0.18500
C1783       C  0.99099219  0.27940557  0.25246046     0.12400
C1784       C  0.92974356  0.19871762  0.27356063    -0.11900
H1785       H  0.94419756  0.11900802  0.27017450     0.12700
C1786       C  0.05439374  0.17512723  0.22992035    -0.22800
H1787       H  0.04344246  0.25471399  0.23464473     0.08400
C1788       C  0.02411335  0.32096106  0.26102929     0.04700
C1789       C  0.02217637  0.36561959  0.26015952    -0.20000
C1790       C  0.98863204  0.37003750  0.25068126    -0.12300
C1791       C  0.95691916  0.32881037  0.24161601     0.13400
C1792       C  0.95780547  0.28366299  0.24289377    -0.22700
C1793       C  0.06200211  0.31838886  0.27088760    -0.05800
H1794       H  0.04706341  0.39734435  0.26692776     0.14900
C1795       C  0.92394365  0.33149696  0.22989188    -0.16000
H1796       H  0.93350031  0.25193154  0.23603538     0.09300
H1797       H  0.09468002  0.20407516  0.23118980     0.07100
H1798       H  0.04085141  0.18096050  0.21930415     0.08300
H1799       H  0.05131692  0.13764236  0.22950989     0.07400
H1800       H  0.90111261  0.20414162  0.26772836     0.02200
H1801       H  0.95224060  0.23171086  0.28066769     0.02700
H1802       H  0.90975795  0.16489587  0.28058420     0.06200
H1803       H  0.08528602  0.35439336  0.27675962     0.05200
H1804       H  0.08757857  0.31026197  0.26437568    -0.00600
H1805       H  0.04247262  0.28817355  0.27907537     0.00900
H1806       H  0.93302277  0.32033424  0.21934027     0.04600
H1807       H  0.92930341  0.36959996  0.22828652     0.06500
H1808       H  0.88380468  0.30507875  0.23249242     0.07400
C1809       C  0.98902066  0.04558711  0.18347468    -0.22200
C1810       C  0.01376929  0.02389178  0.17627382     0.09700
C1811       C  0.03820035  0.00332895  0.18439461     0.10100
C1812       C  0.03618227  0.00370468  0.19960967    -0.17200
C1813       C  0.00984123  0.02369190  0.20683627    -0.27600
C1814       C  0.98696074  0.04604754  0.19869950     0.18500
C1815       C  0.01226215  0.02140995  0.16021196     0.12400
C1816       C  0.06525114  0.97987911  0.17697894    -0.11900
H1817       H  0.05390702  0.98689619  0.20589876     0.12700
C1818       C  0.96121542  0.07170237  0.20565178    -0.22800
H1819       H  0.97093733  0.06197501  0.17716119     0.08400
C1820       C  0.97085053  0.98246984  0.15284256     0.04700
C1821       C  0.97182160  0.98014451  0.13763389    -0.20000
C1822       C  0.01353481  0.01563370  0.12956605    -0.12300
C1823       C  0.05489200  0.05522979  0.13707106     0.13400
C1824       C  0.05351617  0.05752770  0.15230113    -0.22700
C1825       C  0.92599476  0.94292079  0.16107900    -0.05800
H1826       H  0.94002740  0.94983321  0.13204312     0.14900
C1827       C  0.10021703  0.09588792  0.12924272    -0.16000
H1828       H  0.08501483  0.08737188  0.15812747     0.09300
H1829       H  0.92089562  0.05193588  0.20249064     0.07100
H1830       H  0.97916460  0.11126069  0.20179420     0.08300
H1831       H  0.96358472  0.07275628  0.21766374     0.07400
H1832       H  0.09618099  0.00841313  0.17014008     0.02200
H1833       H  0.03850337  0.94816902  0.17001270     0.02700
H1834       H  0.08184814  0.96505242  0.18494078     0.06200
H1835       H  0.89694104  0.91483935  0.15367537     0.05200
H1836       H  0.90852127  0.96093515  0.16744417    -0.00600
H1837       H  0.93808872  0.92265807  0.16860224     0.00900
H1838       H  0.12710329  0.12511260  0.13684050     0.04600
H1839       H  0.08818578  0.11481365  0.12120846     0.06500
H1840       H  0.12075324  0.07943917  0.12368461     0.07400
C1841       C  0.00374623  0.95567266  0.34938044    -0.22200
C1842       C  0.98636371  0.98494623  0.34257219     0.09700
C1843       C  0.96885539  0.01137712  0.35102411     0.10100
C1844       C  0.96966467  0.00835728  0.36621116    -0.17200
C1845       C  0.98692330  0.97895035  0.37309009    -0.27600
C1846       C  0.00475380  0.95264508  0.36456891     0.18500
C1847       C  0.98797132  0.98840079  0.32655272     0.12400
C1848       C  0.94890437  0.04228365  0.34399493    -0.11900
H1849       H  0.95600075  0.02841277  0.37276225     0.12700
C1850       C  0.02709875  0.92290497  0.37100064    -0.22800
H1851       H  0.01760887  0.93588928  0.34278277     0.08400
C1852       C  0.03014392  0.02672240  0.31929221     0.04700
C1853       C  0.02957340  0.02935351  0.30410126    -0.20000
C1854       C  0.98803369  0.99412389  0.29591495    -0.12300
C1855       C  0.94622041  0.95467838  0.30330637     0.13400
C1856       C  0.94676005  0.95264927  0.31855356    -0.22700
C1857       C  0.07590724  0.06455869  0.32758777    -0.05800
H1858       H  0.06191379  0.05935833  0.29860511     0.14900
C1859       C  0.90157687  0.91365596  0.29534776    -0.16000
H1860       H  0.91490702  0.92295397  0.32431200     0.09300
H1861       H  0.06562018  0.93729161  0.36660588     0.07100
H1862       H  0.00355059  0.88264933  0.36796838     0.08300
H1863       H  0.03056854  0.92564035  0.38297504     0.07400
H1864       H  0.91617637  0.01775831  0.33700547     0.02200
H1865       H  0.97861273  0.07243623  0.33722633     0.02700
H1866       H  0.93643668  0.06031139  0.35219519     0.06200
H1867       H  0.10583915  0.09179133  0.32022134     0.05200
H1868       H  0.09161138  0.04476306  0.33392802    -0.00600
H1869       H  0.06554616  0.08608224  0.33514547     0.00900
H1870       H  0.87423223  0.88459324  0.30290442     0.04600
H1871       H  0.91435120  0.89459588  0.28759960     0.06500
H1872       H  0.88134611  0.92976261  0.28943827     0.07400
loop_ 
_geom_bond_atom_site_label_1 
_geom_bond_atom_site_label_2 
_geom_bond_distance 
_geom_bond_site_symmetry_2 
_ccdc_geom_bond_type 
O1           Cu9   2.012       .  S
O1           C11   1.278       .  A
O2           Cu9   2.010       .  S
O2           C12   1.278   1_665  A
O3           Cu9   2.007       .  S
O3           C13   1.278       .  A
O4           Cu9   2.004   1_545  S
O4           C14   1.277       .  A
O5          Cu10   2.010       .  S
O5           C14   1.278   1_455  A
O6          Cu10   2.006   1_565  S
O6           C13   1.278   1_455  A
O7          Cu10   2.002       .  S
O7           C12   1.276       .  A
O8          Cu10   2.004       .  S
O8           C11   1.278   1_445  A
Cu9         Cu10   2.373   1_665  S
C11        C1854   1.489       .  S
C12        C1813   1.471       .  S
C13        C1758   1.476       .  S
C14        C1781   1.474       .  S
O15         Cu23   2.000       .  S
O15          C25   1.276   1_455  A
O16         Cu23   1.999       .  S
O16          C26   1.276   1_455  A
O17         Cu23   2.011       .  S
O17          C27   1.278   1_455  A
O18         Cu23   2.011       .  S
O18          C28   1.280   1_455  A
O19         Cu24   2.010       .  S
O19          C28   1.277       .  A
O20         Cu24   2.013       .  S
O20          C27   1.278       .  A
O21         Cu24   2.015       .  S
O21          C26   1.279       .  A
O22         Cu24   2.012       .  S
O22          C25   1.279       .  A
Cu23        Cu24   2.369   1_455  S
C25        C1749   1.482       .  S
C26        C1790   1.479       .  S
C27        C1685   1.477       .  S
C28        C1717   1.496       .  S
O29         Cu37   2.006   1_565  S
O29          C39   1.277       .  A
O30         Cu37   2.006       .  S
O30          C40   1.277       .  A
O31         Cu37   2.007       .  S
O31          C41   1.277   1_545  A
O32         Cu37   2.009       .  S
O32          C42   1.278       .  A
O33         Cu38   2.003       .  S
O33          C42   1.277   1_565  A
O34         Cu38   2.003       .  S
O34          C41   1.278       .  A
O35         Cu38   2.009   1_545  S
O35          C40   1.277       .  A
O36         Cu38   2.014       .  S
O36          C39   1.279       .  A
Cu37        Cu38   2.373   1_545  S
C39        C1557   1.476       .  S
C40        C1589   1.475       .  S
C41        C1662   1.491       .  S
C42        C1630   1.472       .  S
O43         Cu51   2.013       .  S
O43          C53   1.279       .  A
O44         Cu51   2.005       .  S
O44          C54   1.277       .  A
O45         Cu51   2.011       .  S
O45          C55   1.278       .  A
O46         Cu51   2.013       .  S
O46          C56   1.278       .  A
O47         Cu52   2.006       .  S
O47          C56   1.277       .  A
O48         Cu52   2.004       .  S
O48          C55   1.277       .  A
O49         Cu52   2.009       .  S
O49          C54   1.278       .  A
O50         Cu52   2.004       .  S
O50          C53   1.277       .  A
Cu51        Cu52   2.376       .  S
C53        C1566   1.479       .  S
C54        C1598   1.478       .  S
C55        C1502   1.473       .  S
C56        C1525   1.470       .  S
O57         Cu65   2.007   1_455  S
O57          C67   1.277       .  A
O58         Cu65   2.007       .  S
O58          C68   1.278       .  A
O59         Cu65   2.008       .  S
O59          C69   1.278       .  A
O60         Cu65   2.009       .  S
O60          C70   1.278       .  A
O61         Cu66   2.002       .  S
O61          C70   1.277   1_445  A
O62         Cu66   2.001       .  S
O62          C69   1.277   1_445  A
O63         Cu66   2.010   1_655  S
O63          C68   1.278   1_545  A
O64         Cu66   2.009       .  S
O64          C67   1.278   1_545  A
Cu65        Cu66   2.375   1_665  S
C67        C1461   1.476       .  S
C68        C1429   1.479       .  S
C69        C1845   1.473       .  S
C70        C1406   1.473       .  S
O71         Cu79   2.007   1_455  S
O71          C81   1.277       .  A
O72         Cu79   2.003       .  S
O72          C82   1.278       .  A
O73         Cu79   2.008       .  S
O73          C83   1.278       .  A
O74         Cu79   2.009       .  S
O74          C84   1.278   1_655  A
O75         Cu80   2.006       .  S
O75          C84   1.277       .  A
O76         Cu80   2.006       .  S
O76          C83   1.277   1_455  A
O77         Cu80   2.007   1_655  S
O77          C82   1.277       .  A
O78         Cu80   2.008       .  S
O78          C81   1.278       .  A
Cu79        Cu80   2.374   1_655  S
C81        C1365   1.476       .  S
C82        C1333   1.483       .  S
C83        C1726   1.477       .  S
C84        C1301   1.475       .  S
O85         Cu93   2.008       .  S
O85          C95   1.277   1_545  A
O86         Cu93   2.008       .  S
O86          C96   1.278   1_545  A
O87         Cu93   2.005       .  S
O87          C97   1.277   1_545  A
O88         Cu93   2.008       .  S
O88          C98   1.278   1_545  A
O89         Cu94   2.008       .  S
O89          C98   1.277       .  A
O90         Cu94   2.005       .  S
O90          C97   1.277       .  A
O91         Cu94   2.009       .  S
O91          C96   1.277       .  A
O92         Cu94   2.006       .  S
O92          C95   1.277       .  A
Cu93        Cu94   2.375   1_545  S
C95        C1470   1.477       .  S
C96        C1438   1.476       .  S
C97        C1653   1.470       .  S
C98        C1269   1.475       .  S
O99        Cu107   2.012       .  S
O99         C109   1.278       .  A
O100       Cu107   2.006       .  S
O100        C110   1.277       .  A
O101       Cu107   2.003       .  S
O101        C111   1.277       .  A
O102       Cu107   2.004       .  S
O102        C112   1.278       .  A
O103       Cu108   2.010       .  S
O103        C112   1.277       .  A
O104       Cu108   2.005       .  S
O104        C111   1.278       .  A
O105       Cu108   2.016       .  S
O105        C110   1.279       .  A
O106       Cu108   2.008       .  S
O106        C109   1.278       .  A
Cu107      Cu108   2.372       .  S
C109       C1534   1.480       .  S
C110       C1237   1.481       .  S
C111       C1342   1.471       .  S
C112       C1374   1.486       .  S
O113       Cu121   2.005   1_545  S
O113        C123   1.278   1_655  A
O114       Cu121   2.005       .  S
O114        C124   1.278   1_655  A
O115       Cu121   2.013       .  S
O115        C125   1.279   1_665  A
O116       Cu121   2.013       .  S
O116        C126   1.278   1_655  A
O117       Cu122   2.005       .  S
O117        C126   1.277   1_545  A
O118       Cu122   2.007       .  S
O118        C125   1.277       .  A
O119       Cu122   2.008   1_565  S
O119        C124   1.277       .  A
O120       Cu122   2.005       .  S
O120        C123   1.277       .  A
Cu121      Cu122   2.371   1_665  S
C123       C1173   1.477       .  S
C124       C1141   1.480       .  S
C125       C1822   1.489       .  S
C126       C1205   1.478       .  S
O127       Cu135   2.021       .  S
O127        C137   1.280       .  A
O128       Cu135   2.017       .  S
O128        C138   1.278       .  A
O129       Cu135   2.008       .  S
O129        C139   1.277       .  A
O130       Cu135   2.008       .  S
O130        C140   1.278       .  A
O131       Cu136   2.010       .  S
O131        C140   1.278   1_655  A
O132       Cu136   2.004       .  S
O132        C139   1.277   1_655  A
O133       Cu136   2.008       .  S
O133        C138   1.277   1_655  A
O134       Cu136   2.008       .  S
O134        C137   1.277   1_655  A
Cu135      Cu136   2.373   1_455  S
C137       C1694   1.491       .  S
C138       C1109   1.473       .  S
C139       C1150   1.474       .  S
C140       C1182   1.480       .  S
O141       Cu149   2.004       .  S
O141        C151   1.277   1_545  A
O142       Cu149   2.004       .  S
O142        C152   1.276       .  A
O143       Cu149   2.010   1_565  S
O143        C153   1.278       .  A
O144       Cu149   2.005       .  S
O144        C154   1.277       .  A
O145       Cu150   2.011   1_545  S
O145        C154   1.278       .  A
O146       Cu150   2.008       .  S
O146        C153   1.278       .  A
O147       Cu150   2.014       .  S
O147        C152   1.279   1_565  A
O148       Cu150   2.015       .  S
O148        C151   1.279       .  A
Cu149      Cu150   2.370   1_545  S
C151       C1086   1.484       .  S
C152       C1621   1.488       .  S
C153       C1022   1.479       .  S
C154       C1045   1.479       .  S
O155       Cu163   2.010       .  S
O155        C165   1.277       .  A
O156       Cu163   2.012       .  S
O156        C166   1.279       .  A
O157       Cu163   2.006       .  S
O157        C167   1.277       .  A
O158       Cu163   2.009       .  S
O158        C168   1.278       .  A
O159       Cu164   2.005       .  S
O159        C168   1.277       .  A
O160       Cu164   2.008       .  S
O160        C167   1.278       .  A
O161       Cu164   2.010       .  S
O161        C166   1.277       .  A
O162       Cu164   2.008       .  S
O162        C165   1.277       .  A
Cu163      Cu164   2.373       .  S
C165        C990   1.472       .  S
C166       C1493   1.489       .  S
C167       C1054   1.475       .  S
C168       C1013   1.477       .  S
O169       Cu177   2.004   1_545  S
O169        C179   1.277       .  A
O170       Cu177   2.005   1_655  S
O170        C180   1.277       .  A
O171       Cu177   2.009       .  S
O171        C181   1.279   1_455  A
O172       Cu177   2.010       .  S
O172        C182   1.279   1_455  A
O173       Cu178   2.005       .  S
O173        C182   1.276   1_545  A
O174       Cu178   2.004       .  S
O174        C181   1.276   1_545  A
O175       Cu178   2.010   1_565  S
O175        C180   1.278       .  A
O176       Cu178   2.009   1_455  S
O176        C179   1.278       .  A
Cu177      Cu178   2.368   1_465  S
C179        C926   1.476       .  S
C180        C885   1.478       .  S
C181        C949   1.489   1_655  S
C182       C1214   1.495       .  S
O183       Cu191   2.014   1_655  S
O183        C193   1.279       .  A
O184       Cu191   2.013       .  S
O184        C194   1.279       .  A
O185       Cu191   2.008       .  S
O185        C195   1.277   1_455  A
O186       Cu191   2.005       .  S
O186        C196   1.278   1_455  A
O187       Cu192   2.008       .  S
O187        C196   1.277       .  A
O188       Cu192   2.012       .  S
O188        C195   1.278       .  A
O189       Cu192   2.005   1_455  S
O189        C194   1.277       .  A
O190       Cu192   2.003       .  S
O190        C193   1.277       .  A
Cu191      Cu192   2.373   1_455  S
C193        C798   1.477       .  S
C194        C830   1.480       .  S
C195       C1118   1.473   1_655  S
C196        C853   1.482       .  S
O197       Cu205   2.008       .  S
O197        C207   1.278       .  A
O198       Cu205   2.012   1_545  S
O198        C208   1.278       .  A
O199       Cu205   2.007       .  S
O199        C209   1.277   1_565  A
O200       Cu205   2.006       .  S
O200        C210   1.278   1_565  A
O201       Cu206   2.012       .  S
O201        C210   1.278       .  A
O202       Cu206   2.014       .  S
O202        C209   1.278       .  A
O203       Cu206   2.007       .  S
O203        C208   1.278       .  A
O204       Cu206   2.007   1_565  S
O204        C207   1.277       .  A
Cu205      Cu206   2.374   1_565  S
C207        C821   1.476       .  S
C208        C789   1.480       .  S
C209       C1077   1.476   1_545  S
C210        C766   1.481       .  S
O211       Cu219   2.012       .  S
O211        C221   1.278       .  A
O212       Cu219   2.014       .  S
O212        C222   1.279       .  A
O213       Cu219   2.004       .  S
O213        C223   1.277       .  A
O214       Cu219   2.007       .  S
O214        C224   1.278       .  A
O215       Cu220   2.007       .  S
O215        C224   1.277       .  A
O216       Cu220   2.011       .  S
O216        C223   1.278       .  A
O217       Cu220   2.005       .  S
O217        C222   1.276       .  A
O218       Cu220   2.009       .  S
O218        C221   1.277       .  A
Cu219      Cu220   2.372       .  S
C221        C981   1.472       .  S
C222        C725   1.491       .  S
C223        C917   1.479       .  S
C224        C894   1.476       .  S
O225       Cu233   2.001       .  S
O225        C235   1.277   1_445  A
O226       Cu233   2.007       .  S
O226        C236   1.277   1_545  A
O227       Cu233   2.009       .  S
O227        C237   1.278   1_545  A
O228       Cu233   2.009   1_655  S
O228        C238   1.278   1_545  A
O229       Cu234   2.006       .  S
O229        C238   1.277       .  A
O230       Cu234   2.002   1_455  S
O230        C237   1.277       .  A
O231       Cu234   2.007       .  S
O231        C236   1.278   1_655  A
O232       Cu234   2.009       .  S
O232        C235   1.278       .  A
Cu233      Cu234   2.374   1_445  S
C235       C1397   1.476       .  S
C236        C693   1.481       .  S
C237        C661   1.475       .  S
C238        C638   1.478       .  S
O239       Cu247   2.013       .  S
O239        C249   1.279       .  A
O240       Cu247   2.014       .  S
O240        C250   1.277       .  A
O241       Cu247   2.009       .  S
O241        C251   1.277       .  A
O242       Cu247   2.007   1_655  S
O242        C252   1.277       .  A
O243       Cu248   2.005   1_655  S
O243        C252   1.277       .  A
O244       Cu248   2.008       .  S
O244        C251   1.279       .  A
O245       Cu248   2.008       .  S
O245        C250   1.277       .  A
O246       Cu248   2.004       .  S
O246        C249   1.277       .  A
Cu247      Cu248   2.373       .  S
C249       C1310   1.479       .  S
C250        C597   1.470       .  S
C251        C565   1.489       .  S
C252        C542   1.474       .  S
O253       Cu261   2.008       .  S
O253        C263   1.279   1_545  A
O254       Cu261   2.006       .  S
O254        C264   1.279   1_545  A
O255       Cu261   2.011       .  S
O255        C265   1.278   1_545  A
O256       Cu261   2.006       .  S
O256        C266   1.277   1_545  A
O257       Cu262   2.006       .  S
O257        C266   1.277       .  A
O258       Cu262   2.009       .  S
O258        C265   1.278       .  A
O259       Cu262   2.011       .  S
O259        C264   1.277       .  A
O260       Cu262   2.016       .  S
O260        C263   1.278       .  A
Cu261      Cu262   2.368   1_545  S
C263       C1278   1.489       .  S
C264        C510   1.495       .  S
C265        C629   1.481       .  S
C266        C670   1.477       .  S
O267       Cu275   2.013       .  S
O267        C277   1.278       .  A
O268       Cu275   2.018       .  S
O268        C278   1.279       .  A
O269       Cu275   2.000       .  S
O269        C279   1.276       .  A
O270       Cu275   1.996       .  S
O270        C280   1.275       .  A
O271       Cu276   2.017       .  S
O271        C280   1.279       .  A
O272       Cu276   2.013       .  S
O272        C279   1.278       .  A
O273       Cu276   1.999       .  S
O273        C278   1.277       .  A
O274       Cu276   2.006       .  S
O274        C277   1.277       .  A
Cu275      Cu276   2.375       .  S
C277       C1246   1.475       .  S
C278        C478   1.484       .  S
C279        C533   1.473       .  S
C280        C574   1.471       .  S
O281       Cu289   2.009   1_545  S
O281        C291   1.278       .  A
O282       Cu289   2.015   1_655  S
O282        C292   1.278       .  A
O283       Cu289   2.008       .  S
O283        C293   1.279       .  A
O284       Cu289   2.008       .  S
O284        C294   1.277       .  A
O285       Cu290   2.006       .  S
O285        C294   1.277   1_645  A
O286       Cu290   2.006       .  S
O286        C293   1.277   1_645  A
O287       Cu290   2.001   1_565  S
O287        C292   1.277       .  A
O288       Cu290   2.005   1_455  S
O288        C291   1.277       .  A
Cu289      Cu290   2.371   1_465  S
C291        C446   1.478       .  S
C292        C414   1.478       .  S
C293        C702   1.495       .  S
C294        C958   1.470       .  S
O295       Cu303   2.010       .  S
O295        C305   1.278   1_455  A
O296       Cu303   2.005       .  S
O296        C306   1.277   1_455  A
O297       Cu303   2.006   1_655  S
O297        C307   1.277       .  A
O298       Cu303   2.007       .  S
O298        C308   1.278       .  A
O299       Cu304   2.005   1_455  S
O299        C308   1.278       .  A
O300       Cu304   2.004       .  S
O300        C307   1.277       .  A
O301       Cu304   2.007       .  S
O301        C306   1.278       .  A
O302       Cu304   2.006       .  S
O302        C305   1.278       .  A
Cu303      Cu304   2.375   1_455  S
C305        C606   1.477       .  S
C306        C862   1.475       .  S
C307        C341   1.472       .  S
C308        C382   1.478       .  S
O309       Cu317   2.011       .  S
O309        C319   1.279       .  A
O310       Cu317   2.005   1_565  S
O310        C320   1.278       .  A
O311       Cu317   2.010       .  S
O311        C321   1.278       .  A
O312       Cu317   2.007       .  S
O312        C322   1.277       .  A
O313       Cu318   2.017       .  S
O313        C322   1.279   1_565  A
O314       Cu318   2.008       .  S
O314        C321   1.278   1_565  A
O315       Cu318   2.011       .  S
O315        C320   1.278       .  A
O316       Cu318   2.006   1_545  S
O316        C319   1.276       .  A
Cu317      Cu318   2.373   1_545  S
C319        C350   1.486       .  S
C320        C373   1.475       .  S
C321        C757   1.477       .  S
C322        C501   1.478       .  S
O323       Cu331   2.012       .  S
O323        C333   1.279       .  A
O324       Cu331   2.006       .  S
O324        C334   1.277       .  A
O325       Cu331   2.007       .  S
O325        C335   1.277       .  A
O326       Cu331   2.008       .  S
O326        C336   1.277       .  A
O327       Cu332   2.004       .  S
O327        C336   1.277       .  A
O328       Cu332   2.008       .  S
O328        C335   1.278       .  A
O329       Cu332   2.010       .  S
O329        C334   1.278       .  A
O330       Cu332   2.003       .  S
O330        C333   1.277       .  A
Cu331      Cu332   2.376       .  S
C333        C437   1.476       .  S
C334        C405   1.479       .  S
C335        C734   1.471       .  S
C336        C469   1.471       .  S
C337        C338   1.400       .  A
C337        C342   1.402       .  A
C337        H347   1.085       .  S
C338        C343   1.477       .  S
C338        C339   1.410       .  A
C339        C340   1.403       .  A
C339        C344   1.506       .  S
C340        C341   1.403       .  A
C340        H345   1.084       .  S
C341        C342   1.416       .  A
C342        C346   1.509       .  S
C343        C348   1.407       .  A
C343        C352   1.397       .  A
C344        H360   1.110       .  S
C344        H361   1.110       .  S
C344        H362   1.111       .  S
C346        H357   1.110       .  S
C346        H358   1.111       .  S
C346        H359   1.107       .  S
C348        C349   1.403       .  A
C348        C353   1.506       .  S
C349        C350   1.409       .  A
C349        H354   1.084       .  S
C350        C351   1.425       .  A
C351        C352   1.402       .  A
C351        C355   1.509       .  S
C352        H356   1.085       .  S
C353        H363   1.111       .  S
C353        H364   1.110       .  S
C353        H365   1.110       .  S
C355        H366   1.111       .  S
C355        H367   1.098       .  S
C355        H368   1.110       .  S
C369        C370   1.399       .  A
C369        C374   1.401       .  A
C369        H379   1.085       .  S
C370        C375   1.478       .  S
C370        C371   1.410       .  A
C371        C372   1.404       .  A
C371        C376   1.506       .  S
C372        C373   1.405       .  A
C372        H377   1.084       .  S
C373        C374   1.417       .  A
C374        C378   1.508       .  S
C375        C380   1.409       .  A
C375        C384   1.399       .  A
C376        H392   1.110       .  S
C376        H393   1.110       .  S
C376        H394   1.111       .  S
C378        H389   1.110       .  S
C378        H390   1.111       .  S
C378        H391   1.105       .  S
C380        C381   1.403       .  A
C380        C385   1.506       .  S
C381        C382   1.406       .  A
C381        H386   1.084       .  S
C382        C383   1.419       .  A
C383        C384   1.402       .  A
C383        C387   1.509       .  S
C384        H388   1.085       .  S
C385        H395   1.111       .  S
C385        H396   1.110       .  S
C385        H397   1.110       .  S
C387        H398   1.111       .  S
C387        H399   1.106       .  S
C387        H400   1.110       .  S
C401        C402   1.400       .  A
C401        C406   1.404       .  A
C401        H411   1.085       .  S
C402        C407   1.479       .  S
C402        C403   1.409       .  A
C403        C404   1.402       .  A
C403        C408   1.506       .  S
C404        C405   1.405       .  A
C404        H409   1.084       .  S
C405        C406   1.419       .  A
C406        C410   1.509       .  S
C407        C412   1.410       .  A
C407        C416   1.399       .  A
C408        H424   1.110       .  S
C408        H425   1.110       .  S
C408        H426   1.111       .  S
C410        H421   1.110       .  S
C410        H422   1.111       .  S
C410        H423   1.105       .  S
C412        C413   1.405       .  A
C412        C417   1.506       .  S
C413        C414   1.405       .  A
C413        H418   1.084       .  S
C414        C415   1.419       .  A
C415        C416   1.402       .  A
C415        C419   1.510       .  S
C416        H420   1.085       .  S
C417        H427   1.111       .  S
C417        H428   1.110       .  S
C417        H429   1.110       .  S
C419        H430   1.111       .  S
C419        H431   1.106       .  S
C419        H432   1.110       .  S
C433        C434   1.400       .  A
C433        C438   1.402       .  A
C433        H443   1.085       .  S
C434        C439   1.479       .  S
C434        C435   1.409       .  A
C435        C436   1.404       .  A
C435        C440   1.506       .  S
C436        C437   1.405       .  A
C436        H441   1.084       .  S
C437        C438   1.417       .  A
C438        C442   1.509       .  S
C439        C444   1.409       .  A
C439        C448   1.400       .  A
C440        H456   1.110       .  S
C440        H457   1.110       .  S
C440        H458   1.111       .  S
C442        H453   1.110       .  S
C442        H454   1.111       .  S
C442        H455   1.106       .  S
C444        C445   1.403       .  A
C444        C449   1.506       .  S
C445        C446   1.405       .  A
C445        H450   1.084       .  S
C446        C447   1.419       .  A
C447        C448   1.403       .  A
C447        C451   1.509       .  S
C448        H452   1.085       .  S
C449        H459   1.111       .  S
C449        H460   1.110       .  S
C449        H461   1.110       .  S
C451        H462   1.111       .  S
C451        H463   1.106       .  S
C451        H464   1.110       .  S
C465        C466   1.401       .  A
C465        C470   1.402       .  A
C465        H475   1.084       .  S
C466        C471   1.479       .  S
C466        C467   1.411       .  A
C467        C468   1.403       .  A
C467        C472   1.507       .  S
C468        C469   1.403       .  A
C468        H473   1.084       .  S
C469        C470   1.415       .  A
C470        C474   1.508       .  S
C471        C476   1.409       .  A
C471        C480   1.400       .  A
C472        H488   1.110       .  S
C472        H489   1.109       .  S
C472        H490   1.111       .  S
C474        H485   1.111       .  S
C474        H486   1.110       .  S
C474        H487   1.107       .  S
C476        C477   1.402       .  A
C476        C481   1.507       .  S
C477        C478   1.407       .  A
C477        H482   1.084       .  S
C478        C479   1.418       .  A
C479        C480   1.405       .  A
C479        C483   1.507       .  S
C480        H484   1.085       .  S
C481        H491   1.111       .  S
C481        H492   1.110       .  S
C481        H493   1.109       .  S
C483        H494   1.111       .  S
C483        H495   1.111       .  S
C483        H496   1.109       .  S
C497        C498   1.401   1_545  A
C497        C502   1.402       .  A
C497        H507   1.085       .  S
C498        C503   1.481       .  S
C498        C499   1.411       .  A
C499        C500   1.403       .  A
C499        C504   1.506       .  S
C500        C501   1.404   1_565  A
C500        H505   1.083       .  S
C501        C502   1.417       .  A
C502        C506   1.505       .  S
C503        C508   1.408   1_565  A
C503        C512   1.399       .  A
C504        H520   1.110       .  S
C504        H521   1.110       .  S
C504        H522   1.111       .  S
C506        H517   1.111       .  S
C506        H518   1.110       .  S
C506        H519   1.103       .  S
C508        C509   1.402       .  A
C508        C513   1.507       .  S
C509        C510   1.410   1_545  A
C509        H514   1.083       .  S
C510        C511   1.424       .  A
C511        C512   1.406       .  A
C511        C515   1.508       .  S
C512        H516   1.084       .  S
C513        H523   1.111       .  S
C513        H524   1.110       .  S
C513        H525   1.110       .  S
C515        H526   1.111       .  S
C515        H527   1.110       .  S
C515        H528   1.110       .  S
C529        C530   1.401       .  A
C529        C534   1.403       .  A
C529        H539   1.084       .  S
C530        C535   1.479       .  S
C530        C531   1.410       .  A
C531        C532   1.402       .  A
C531        C536   1.507       .  S
C532        C533   1.404       .  A
C532        H537   1.084       .  S
C533        C534   1.416       .  A
C534        C538   1.508       .  S
C535        C540   1.410       .  A
C535        C544   1.400       .  A
C536        H552   1.110       .  S
C536        H553   1.110       .  S
C536        H554   1.111       .  S
C538        H549   1.111       .  S
C538        H550   1.110       .  S
C538        H551   1.107       .  S
C540        C541   1.403       .  A
C540        C545   1.506       .  S
C541        C542   1.404       .  A
C541        H546   1.084       .  S
C542        C543   1.417       .  A
C543        C544   1.402       .  A
C543        C547   1.509       .  S
C544        H548   1.085       .  S
C545        H555   1.111       .  S
C545        H556   1.110       .  S
C545        H557   1.110       .  S
C547        H558   1.110       .  S
C547        H559   1.107       .  S
C547        H560   1.111       .  S
C561        C562   1.400       .  A
C561        C566   1.406       .  A
C561        H571   1.084       .  S
C562        C567   1.480       .  S
C562        C563   1.408       .  A
C563        C564   1.402       .  A
C563        C568   1.507       .  S
C564        C565   1.408       .  A
C564        H569   1.084       .  S
C565        C566   1.422       .  A
C566        C570   1.508       .  S
C567        C572   1.410       .  A
C567        C576   1.402       .  A
C568        H584   1.110       .  S
C568        H585   1.110       .  S
C568        H586   1.111       .  S
C570        H581   1.110       .  S
C570        H582   1.111       .  S
C570        H583   1.110       .  S
C572        C573   1.403       .  A
C572        C577   1.506       .  S
C573        C574   1.404       .  A
C573        H578   1.085       .  S
C574        C575   1.415       .  A
C575        C576   1.403       .  A
C575        C579   1.508       .  S
C576        H580   1.085       .  S
C577        H587   1.111       .  S
C577        H588   1.110       .  S
C577        H589   1.110       .  S
C579        H590   1.111       .  S
C579        H591   1.107       .  S
C579        H592   1.110       .  S
C593        C594   1.400   1_655  A
C593        C598   1.402       .  A
C593        H603   1.084       .  S
C594        C599   1.480       .  S
C594        C595   1.411       .  A
C595        C596   1.405       .  A
C595        C600   1.506       .  S
C596        C597   1.402       .  A
C596        H601   1.084       .  S
C597        C598   1.415   1_455  A
C598        C602   1.508       .  S
C599        C604   1.409       .  A
C599        C608   1.401   1_455  A
C600        H616   1.110       .  S
C600        H617   1.110       .  S
C600        H618   1.111       .  S
C602        H613   1.110       .  S
C602        H614   1.110       .  S
C602        H615   1.107       .  S
C604        C605   1.403       .  A
C604        C609   1.506       .  S
C605        C606   1.405   1_455  A
C605        H610   1.084       .  S
C606        C607   1.417       .  A
C607        C608   1.404       .  A
C607        C611   1.508       .  S
C608        H612   1.084       .  S
C609        H619   1.111       .  S
C609        H620   1.110       .  S
C609        H621   1.110       .  S
C611        H622   1.111       .  S
C611        H623   1.107       .  S
C611        H624   1.110       .  S
C625        C626   1.399       .  A
C625        C630   1.402       .  A
C625        H635   1.085       .  S
C626        C631   1.479       .  S
C626        C627   1.409   1_565  A
C627        C628   1.404       .  A
C627        C632   1.506       .  S
C628        C629   1.406   1_545  A
C628        H633   1.084       .  S
C629        C630   1.419       .  A
C630        C634   1.507       .  S
C631        C636   1.409       .  A
C631        C640   1.400   1_565  A
C632        H648   1.110       .  S
C632        H649   1.110       .  S
C632        H650   1.111       .  S
C634        H645   1.110       .  S
C634        H646   1.111       .  S
C634        H647   1.102       .  S
C636        C637   1.404       .  A
C636        C641   1.506       .  S
C637        C638   1.406       .  A
C637        H642   1.084       .  S
C638        C639   1.419   1_565  A
C639        C640   1.402       .  A
C639        C643   1.509       .  S
C640        H644   1.085       .  S
C641        H651   1.111       .  S
C641        H652   1.110       .  S
C641        H653   1.110       .  S
C643        H654   1.111       .  S
C643        H655   1.105       .  S
C643        H656   1.110       .  S
C657        C658   1.401       .  A
C657        C662   1.404       .  A
C657        H667   1.084   1_565  S
C658        C663   1.477       .  S
C658        C659   1.410       .  A
C659        C660   1.402       .  A
C659        C664   1.507       .  S
C660        C661   1.404       .  A
C660        H665   1.084       .  S
C661        C662   1.415       .  A
C662        C666   1.507   1_565  S
C663        C668   1.409       .  A
C663        C672   1.399       .  A
C664        H680   1.110       .  S
C664        H681   1.109       .  S
C664        H682   1.111       .  S
C666        H677   1.111       .  S
C666        H678   1.109       .  S
C666        H679   1.111       .  S
C668        C669   1.403       .  A
C668        C673   1.506       .  S
C669        C670   1.405       .  A
C669        H674   1.084       .  S
C670        C671   1.419       .  A
C671        C672   1.402       .  A
C671        C675   1.509   1_565  S
C672        H676   1.085   1_565  S
C673        H683   1.111       .  S
C673        H684   1.110       .  S
C673        H685   1.109       .  S
C675        H686   1.110       .  S
C675        H687   1.106       .  S
C675        H688   1.111       .  S
C689        C690   1.400   1_545  A
C689        C694   1.403       .  A
C689        H699   1.085       .  S
C690        C695   1.479       .  S
C690        C691   1.409   1_455  A
C691        C692   1.402       .  A
C691        C696   1.506       .  S
C692        C693   1.406   1_655  A
C692        H697   1.084       .  S
C693        C694   1.421   1_565  A
C694        C698   1.509       .  S
C695        C700   1.407       .  A
C695        C704   1.398   1_465  A
C696        H712   1.110       .  S
C696        H713   1.110       .  S
C696        H714   1.111       .  S
C698        H709   1.111       .  S
C698        H710   1.110       .  S
C698        H711   1.105       .  S
C700        C701   1.402       .  A
C700        C705   1.507       .  S
C701        C702   1.411       .  A
C701        H706   1.083       .  S
C702        C703   1.424   1_465  A
C703        C704   1.405       .  A
C703        C707   1.508       .  S
C704        H708   1.084       .  S
C705        H715   1.111       .  S
C705        H716   1.110       .  S
C705        H717   1.110       .  S
C707        H718   1.111       .  S
C707        H719   1.110       .  S
C707        H720   1.110       .  S
C721        C722   1.399       .  A
C721        C726   1.404       .  A
C721        H731   1.084       .  S
C722        C727   1.481       .  S
C722        C723   1.408       .  A
C723        C724   1.403       .  A
C723        C728   1.506       .  S
C724        C725   1.409       .  A
C724        H729   1.084       .  S
C725        C726   1.423       .  A
C726        C730   1.508       .  S
C727        C732   1.411       .  A
C727        C736   1.401       .  A
C728        H744   1.110       .  S
C728        H745   1.110       .  S
C728        H746   1.111       .  S
C730        H741   1.111       .  S
C730        H742   1.110       .  S
C730        H743   1.110       .  S
C732        C733   1.404       .  A
C732        C737   1.506       .  S
C733        C734   1.403       .  A
C733        H738   1.084       .  S
C734        C735   1.416       .  A
C735        C736   1.402       .  A
C735        C739   1.509       .  S
C736        H740   1.085       .  S
C737        H747   1.111       .  S
C737        H748   1.110       .  S
C737        H749   1.110       .  S
C739        H750   1.111       .  S
C739        H751   1.107       .  S
C739        H752   1.110       .  S
C753        C754   1.401       .  A
C753        C758   1.403   1_545  A
C753        H763   1.085   1_545  S
C754        C759   1.480       .  S
C754        C755   1.409       .  A
C755        C756   1.403       .  A
C755        C760   1.506       .  S
C756        C757   1.404       .  A
C756        H761   1.084       .  S
C757        C758   1.418   1_545  A
C758        C762   1.509       .  S
C759        C764   1.409       .  A
C759        C768   1.399   1_545  A
C760        H776   1.110       .  S
C760        H777   1.110       .  S
C760        H778   1.111       .  S
C762        H773   1.110   1_565  S
C762        H774   1.111       .  S
C762        H775   1.106       .  S
C764        C765   1.405       .  A
C764        C769   1.506       .  S
C765        C766   1.406       .  A
C765        H770   1.084       .  S
C766        C767   1.420   1_545  A
C767        C768   1.402       .  A
C767        C771   1.509       .  S
C768        H772   1.085       .  S
C769        H779   1.111       .  S
C769        H780   1.110       .  S
C769        H781   1.110       .  S
C771        H782   1.111       .  S
C771        H783   1.106       .  S
C771        H784   1.110       .  S
C785        C786   1.400       .  A
C785        C790   1.403       .  A
C785        H795   1.085       .  S
C786        C791   1.480       .  S
C786        C787   1.409       .  A
C787        C788   1.404       .  A
C787        C792   1.506       .  S
C788        C789   1.406       .  A
C788        H793   1.084       .  S
C789        C790   1.419       .  A
C790        C794   1.509       .  S
C791        C796   1.409       .  A
C791        C800   1.400       .  A
C792        H808   1.110       .  S
C792        H809   1.110       .  S
C792        H810   1.111       .  S
C794        H805   1.110       .  S
C794        H806   1.111       .  S
C794        H807   1.106       .  S
C796        C797   1.403       .  A
C796        C801   1.506       .  S
C797        C798   1.405       .  A
C797        H802   1.084       .  S
C798        C799   1.417       .  A
C799        C800   1.403       .  A
C799        C803   1.508       .  S
C800        H804   1.084       .  S
C801        H811   1.111       .  S
C801        H812   1.110       .  S
C801        H813   1.110       .  S
C803        H814   1.111       .  S
C803        H815   1.106       .  S
C803        H816   1.110       .  S
C817        C818   1.401       .  A
C817        C822   1.404       .  A
C817        H827   1.085       .  S
C818        C823   1.479       .  S
C818        C819   1.409       .  A
C819        C820   1.401       .  A
C819        C824   1.507       .  S
C820        C821   1.403       .  A
C820        H825   1.084       .  S
C821        C822   1.418       .  A
C822        C826   1.509       .  S
C823        C828   1.409       .  A
C823        C832   1.400       .  A
C824        H840   1.110       .  S
C824        H841   1.110       .  S
C824        H842   1.111       .  S
C826        H837   1.110       .  S
C826        H838   1.111       .  S
C826        H839   1.107       .  S
C828        C829   1.403       .  A
C828        C833   1.506       .  S
C829        C830   1.406       .  A
C829        H834   1.084       .  S
C830        C831   1.419       .  A
C831        C832   1.403       .  A
C831        C835   1.509       .  S
C832        H836   1.085       .  S
C833        H843   1.111       .  S
C833        H844   1.110       .  S
C833        H845   1.110       .  S
C835        H846   1.111       .  S
C835        H847   1.106       .  S
C835        H848   1.110       .  S
C849        C850   1.400       .  A
C849        C854   1.404       .  A
C849        H859   1.084       .  S
C850        C855   1.478       .  S
C850        C851   1.409       .  A
C851        C852   1.402       .  A
C851        C856   1.507       .  S
C852        C853   1.406       .  A
C852        H857   1.084       .  S
C853        C854   1.418       .  A
C854        C858   1.508       .  S
C855        C860   1.409       .  A
C855        C864   1.401   1_655  A
C856        H872   1.110   1_655  S
C856        H873   1.110       .  S
C856        H874   1.111       .  S
C858        H869   1.109       .  S
C858        H870   1.111       .  S
C858        H871   1.111   1_655  S
C860        C861   1.402       .  A
C860        C865   1.506       .  S
C861        C862   1.405       .  A
C861        H866   1.084       .  S
C862        C863   1.417   1_655  A
C863        C864   1.402       .  A
C863        C867   1.509       .  S
C864        H868   1.085       .  S
C865        H875   1.111       .  S
C865        H876   1.110       .  S
C865        H877   1.110       .  S
C867        H878   1.111       .  S
C867        H879   1.106       .  S
C867        H880   1.110       .  S
C881        C882   1.400       .  A
C881        C886   1.403       .  A
C881        H891   1.085       .  S
C882        C887   1.479       .  S
C882        C883   1.409       .  A
C883        C884   1.403       .  A
C883        C888   1.506       .  S
C884        C885   1.405       .  A
C884        H889   1.084       .  S
C885        C886   1.419       .  A
C886        C890   1.509       .  S
C887        C892   1.410       .  A
C887        C896   1.400       .  A
C888        H904   1.110       .  S
C888        H905   1.110       .  S
C888        H906   1.111       .  S
C890        H901   1.110       .  S
C890        H902   1.111       .  S
C890        H903   1.106       .  S
C892        C893   1.403       .  A
C892        C897   1.506       .  S
C893        C894   1.404       .  A
C893        H898   1.084       .  S
C894        C895   1.418       .  A
C895        C896   1.402       .  A
C895        C899   1.509       .  S
C896        H900   1.085       .  S
C897        H907   1.111       .  S
C897        H908   1.110       .  S
C897        H909   1.110       .  S
C899        H910   1.111       .  S
C899        H911   1.106       .  S
C899        H912   1.110       .  S
C913        C914   1.400       .  A
C913        C918   1.402       .  A
C913        H923   1.085       .  S
C914        C919   1.478       .  S
C914        C915   1.408       .  A
C915        C916   1.403       .  A
C915        C920   1.506       .  S
C916        C917   1.407       .  A
C916        H921   1.084       .  S
C917        C918   1.419       .  A
C918        C922   1.509       .  S
C919        C924   1.409       .  A
C919        C928   1.400       .  A
C920        H936   1.110       .  S
C920        H937   1.110       .  S
C920        H938   1.111       .  S
C922        H933   1.110       .  S
C922        H934   1.111       .  S
C922        H935   1.105       .  S
C924        C925   1.403       .  A
C924        C929   1.506       .  S
C925        C926   1.406       .  A
C925        H930   1.084       .  S
C926        C927   1.417       .  A
C927        C928   1.402       .  A
C927        C931   1.509       .  S
C928        H932   1.085       .  S
C929        H939   1.111       .  S
C929        H940   1.110       .  S
C929        H941   1.110       .  S
C931        H942   1.111       .  S
C931        H943   1.106       .  S
C931        H944   1.110       .  S
C945        C946   1.398   1_645  A
C945        C950   1.404       .  A
C945        H955   1.084       .  S
C946        C951   1.478       .  S
C946        C947   1.408       .  A
C947        C948   1.402       .  A
C947        C952   1.507       .  S
C948        C949   1.408       .  A
C948        H953   1.084       .  S
C949        C950   1.423   1_465  A
C950        C954   1.508       .  S
C951        C956   1.410   1_455  A
C951        C960   1.401   1_565  A
C952        H968   1.110       .  S
C952        H969   1.110   1_455  S
C952        H970   1.111       .  S
C954        H965   1.111       .  S
C954        H966   1.111   1_655  S
C954        H967   1.110       .  S
C956        C957   1.402       .  A
C956        C961   1.506       .  S
C957        C958   1.401   1_655  A
C957        H962   1.084       .  S
C958        C959   1.416   1_565  A
C959        C960   1.403       .  A
C959        C963   1.508       .  S
C960        H964   1.084       .  S
C961        H971   1.111       .  S
C961        H972   1.110       .  S
C961        H973   1.110       .  S
C963        H974   1.111       .  S
C963        H975   1.108       .  S
C963        H976   1.110       .  S
C977        C978   1.402       .  A
C977        C982   1.403       .  A
C977        H987   1.084       .  S
C978        C983   1.484   1_556  S
C978        C979   1.412       .  A
C979        C980   1.405       .  A
C979        C984   1.506       .  S
C980        C981   1.402       .  A
C980        H985   1.084       .  S
C981        C982   1.415       .  A
C982        C986   1.508       .  S
C983        C988   1.412       .  A
C983        C992   1.403       .  A
C984       H1000   1.109       .  S
C984       H1001   1.110       .  S
C984       H1002   1.111       .  S
C986        H997   1.110       .  S
C986        H998   1.110       .  S
C986        H999   1.107       .  S
C988        C989   1.404       .  A
C988        C993   1.507       .  S
C989        C990   1.402       .  A
C989        H994   1.084       .  S
C990        C991   1.415       .  A
C991        C992   1.403       .  A
C991        C995   1.508       .  S
C992        H996   1.084       .  S
C993       H1003   1.111       .  S
C993       H1004   1.109       .  S
C993       H1005   1.110       .  S
C995       H1006   1.111       .  S
C995       H1007   1.108       .  S
C995       H1008   1.110       .  S
C1009      C1010   1.401       .  A
C1009      C1014   1.404       .  A
C1009      H1019   1.085       .  S
C1010      C1015   1.480       .  S
C1010      C1011   1.409       .  A
C1011      C1012   1.402       .  A
C1011      C1016   1.506       .  S
C1012      C1013   1.404       .  A
C1012      H1017   1.084       .  S
C1013      C1014   1.419       .  A
C1014      C1018   1.509       .  S
C1015      C1020   1.409       .  A
C1015      C1024   1.399       .  A
C1016      H1032   1.110       .  S
C1016      H1033   1.110       .  S
C1016      H1034   1.111       .  S
C1018      H1029   1.110       .  S
C1018      H1030   1.111       .  S
C1018      H1031   1.106       .  S
C1020      C1021   1.405       .  A
C1020      C1025   1.506       .  S
C1021      C1022   1.406       .  A
C1021      H1026   1.084       .  S
C1022      C1023   1.419       .  A
C1023      C1024   1.402       .  A
C1023      C1027   1.509       .  S
C1024      H1028   1.085       .  S
C1025      H1035   1.111       .  S
C1025      H1036   1.110       .  S
C1025      H1037   1.110       .  S
C1027      H1038   1.111       .  S
C1027      H1039   1.106       .  S
C1027      H1040   1.110       .  S
C1041      C1042   1.399       .  A
C1041      C1046   1.402       .  A
C1041      H1051   1.085       .  S
C1042      C1047   1.478       .  S
C1042      C1043   1.409       .  A
C1043      C1044   1.404       .  A
C1043      C1048   1.507       .  S
C1044      C1045   1.406       .  A
C1044      H1049   1.084       .  S
C1045      C1046   1.418       .  A
C1046      C1050   1.509       .  S
C1047      C1052   1.410       .  A
C1047      C1056   1.400       .  A
C1048      H1064   1.110       .  S
C1048      H1065   1.109       .  S
C1048      H1066   1.111       .  S
C1050      H1061   1.110       .  S
C1050      H1062   1.111       .  S
C1050      H1063   1.106       .  S
C1052      C1053   1.403       .  A
C1052      C1057   1.507       .  S
C1053      C1054   1.404       .  A
C1053      H1058   1.084       .  S
C1054      C1055   1.417       .  A
C1055      C1056   1.403       .  A
C1055      C1059   1.509       .  S
C1056      H1060   1.085       .  S
C1057      H1067   1.111       .  S
C1057      H1068   1.110       .  S
C1057      H1069   1.109       .  S
C1059      H1070   1.111       .  S
C1059      H1071   1.106       .  S
C1059      H1072   1.110       .  S
C1073      C1074   1.401       .  A
C1073      C1078   1.404       .  A
C1073      H1083   1.085       .  S
C1074      C1079   1.481   1_556  S
C1074      C1075   1.411   1_565  A
C1075      C1076   1.404       .  A
C1075      C1080   1.507       .  S
C1076      C1077   1.403   1_545  A
C1076      H1081   1.084       .  S
C1077      C1078   1.417       .  A
C1078      C1082   1.508       .  S
C1079      C1084   1.410       .  A
C1079      C1088   1.399       .  A
C1080      H1096   1.110       .  S
C1080      H1097   1.109       .  S
C1080      H1098   1.111       .  S
C1082      H1093   1.111       .  S
C1082      H1094   1.110       .  S
C1082      H1095   1.106       .  S
C1084      C1085   1.404       .  A
C1084      C1089   1.506       .  S
C1085      C1086   1.406       .  A
C1085      H1090   1.084       .  S
C1086      C1087   1.421       .  A
C1087      C1088   1.403       .  A
C1087      C1091   1.509       .  S
C1088      H1092   1.085       .  S
C1089      H1099   1.111       .  S
C1089      H1100   1.110       .  S
C1089      H1101   1.109   1_565  S
C1091      H1102   1.111       .  S
C1091      H1103   1.106       .  S
C1091      H1104   1.110   1_565  S
C1105      C1106   1.402       .  A
C1105      C1110   1.404       .  A
C1105      H1115   1.084       .  S
C1106      C1111   1.484   1_554  S
C1106      C1107   1.412   1_455  A
C1107      C1108   1.405       .  A
C1107      C1112   1.506       .  S
C1108      C1109   1.403   1_655  A
C1108      H1113   1.084       .  S
C1109      C1110   1.415       .  A
C1110      C1114   1.508       .  S
C1111      C1116   1.412       .  A
C1111      C1120   1.402   1_455  A
C1112      H1128   1.110       .  S
C1112      H1129   1.111   1_655  S
C1112      H1130   1.111       .  S
C1114      H1125   1.110       .  S
C1114      H1126   1.110       .  S
C1114      H1127   1.108       .  S
C1116      C1117   1.405       .  A
C1116      C1121   1.506       .  S
C1117      C1118   1.403       .  A
C1117      H1122   1.084       .  S
C1118      C1119   1.415   1_455  A
C1119      C1120   1.403       .  A
C1119      C1123   1.509       .  S
C1120      H1124   1.084       .  S
C1121      H1131   1.111       .  S
C1121      H1132   1.110       .  S
C1121      H1133   1.110       .  S
C1123      H1134   1.111       .  S
C1123      H1135   1.107       .  S
C1123      H1136   1.110       .  S
C1137      C1138   1.400       .  A
C1137      C1142   1.403       .  A
C1137      H1147   1.085       .  S
C1138      C1143   1.478       .  S
C1138      C1139   1.409   1_455  A
C1139      C1140   1.402       .  A
C1139      C1144   1.507       .  S
C1140      C1141   1.406   1_655  A
C1140      H1145   1.084       .  S
C1141      C1142   1.419       .  A
C1142      C1146   1.509       .  S
C1143      C1148   1.410       .  A
C1143      C1152   1.400   1_455  A
C1144      H1160   1.110       .  S
C1144      H1161   1.110       .  S
C1144      H1162   1.111       .  S
C1146      H1157   1.110       .  S
C1146      H1158   1.111       .  S
C1146      H1159   1.106       .  S
C1148      C1149   1.403       .  A
C1148      C1153   1.506       .  S
C1149      C1150   1.404       .  A
C1149      H1154   1.084       .  S
C1150      C1151   1.417   1_455  A
C1151      C1152   1.402       .  A
C1151      C1155   1.509       .  S
C1152      H1156   1.085       .  S
C1153      H1163   1.111       .  S
C1153      H1164   1.110       .  S
C1153      H1165   1.110       .  S
C1155      H1166   1.111       .  S
C1155      H1167   1.106       .  S
C1155      H1168   1.110       .  S
C1169      C1170   1.400       .  A
C1169      C1174   1.402       .  A
C1169      H1179   1.085       .  S
C1170      C1175   1.478       .  S
C1170      C1171   1.409   1_455  A
C1171      C1172   1.402       .  A
C1171      C1176   1.506       .  S
C1172      C1173   1.405   1_655  A
C1172      H1177   1.084       .  S
C1173      C1174   1.418       .  A
C1174      C1178   1.509       .  S
C1175      C1180   1.409       .  A
C1175      C1184   1.400   1_455  A
C1176      H1192   1.110       .  S
C1176      H1193   1.110       .  S
C1176      H1194   1.111       .  S
C1178      H1189   1.110       .  S
C1178      H1190   1.111       .  S
C1178      H1191   1.106       .  S
C1180      C1181   1.403       .  A
C1180      C1185   1.506       .  S
C1181      C1182   1.406       .  A
C1181      H1186   1.084       .  S
C1182      C1183   1.419   1_455  A
C1183      C1184   1.403       .  A
C1183      C1187   1.509       .  S
C1184      H1188   1.085       .  S
C1185      H1195   1.111       .  S
C1185      H1196   1.110       .  S
C1185      H1197   1.110       .  S
C1187      H1198   1.111       .  S
C1187      H1199   1.106       .  S
C1187      H1200   1.110       .  S
C1201      C1202   1.401   1_655  A
C1201      C1206   1.404       .  A
C1201      H1211   1.085       .  S
C1202      C1207   1.480   1_554  S
C1202      C1203   1.410   1_565  A
C1203      C1204   1.402       .  A
C1203      C1208   1.507       .  S
C1204      C1205   1.405   1_545  A
C1204      H1209   1.084       .  S
C1205      C1206   1.418   1_455  A
C1206      C1210   1.508       .  S
C1207      C1212   1.407       .  A
C1207      C1216   1.398   1_465  A
C1208      H1224   1.110       .  S
C1208      H1225   1.110       .  S
C1208      H1226   1.111       .  S
C1210      H1221   1.111       .  S
C1210      H1222   1.110       .  S
C1210      H1223   1.106       .  S
C1212      C1213   1.402       .  A
C1212      C1217   1.507       .  S
C1213      C1214   1.410   1_455  A
C1213      H1218   1.083       .  S
C1214      C1215   1.425   1_565  A
C1215      C1216   1.405       .  A
C1215      C1219   1.508       .  S
C1216      H1220   1.084       .  S
C1217      H1227   1.111       .  S
C1217      H1228   1.110       .  S
C1217      H1229   1.110       .  S
C1219      H1230   1.111       .  S
C1219      H1231   1.110       .  S
C1219      H1232   1.110       .  S
C1233      C1234   1.400       .  A
C1233      C1238   1.403       .  A
C1233      H1243   1.084       .  S
C1234      C1239   1.480       .  S
C1234      C1235   1.409       .  A
C1235      C1236   1.403       .  A
C1235      C1240   1.506       .  S
C1236      C1237   1.406       .  A
C1236      H1241   1.084       .  S
C1237      C1238   1.419       .  A
C1238      C1242   1.507       .  S
C1239      C1244   1.410       .  A
C1239      C1248   1.401       .  A
C1240      H1256   1.110       .  S
C1240      H1257   1.110       .  S
C1240      H1258   1.111       .  S
C1242      H1253   1.111       .  S
C1242      H1254   1.110       .  S
C1242      H1255   1.103       .  S
C1244      C1245   1.403       .  A
C1244      C1249   1.506       .  S
C1245      C1246   1.403       .  A
C1245      H1250   1.084       .  S
C1246      C1247   1.417       .  A
C1247      C1248   1.404       .  A
C1247      C1251   1.508       .  S
C1248      H1252   1.085       .  S
C1249      H1259   1.111       .  S
C1249      H1260   1.110       .  S
C1249      H1261   1.110       .  S
C1251      H1262   1.110       .  S
C1251      H1263   1.107       .  S
C1251      H1264   1.111       .  S
C1265      C1266   1.400       .  A
C1265      C1270   1.403       .  A
C1265      H1275   1.084       .  S
C1266      C1271   1.479       .  S
C1266      C1267   1.410       .  A
C1267      C1268   1.403       .  A
C1267      C1272   1.507   1_565  S
C1268      C1269   1.404       .  A
C1268      H1273   1.084   1_565  S
C1269      C1270   1.417       .  A
C1270      C1274   1.509       .  S
C1271      C1276   1.409       .  A
C1271      C1280   1.399       .  A
C1272      H1288   1.110   1_545  S
C1272      H1289   1.109       .  S
C1272      H1290   1.111       .  S
C1274      H1285   1.111       .  S
C1274      H1286   1.110       .  S
C1274      H1287   1.107       .  S
C1276      C1277   1.403       .  A
C1276      C1281   1.508   1_565  S
C1277      C1278   1.408       .  A
C1277      H1282   1.084   1_565  S
C1278      C1279   1.421       .  A
C1279      C1280   1.405       .  A
C1279      C1283   1.506       .  S
C1280      H1284   1.084       .  S
C1281      H1291   1.111       .  S
C1281      H1292   1.110       .  S
C1281      H1293   1.109       .  S
C1283      H1294   1.109       .  S
C1283      H1295   1.107       .  S
C1283      H1296   1.111       .  S
C1297      C1298   1.401   1_655  A
C1297      C1302   1.404       .  A
C1297      H1307   1.084       .  S
C1298      C1303   1.480       .  S
C1298      C1299   1.410       .  A
C1299      C1300   1.402       .  A
C1299      C1304   1.506       .  S
C1300      C1301   1.404       .  A
C1300      H1305   1.083       .  S
C1301      C1302   1.417   1_455  A
C1302      C1306   1.508       .  S
C1303      C1308   1.409       .  A
C1303      C1312   1.400       .  A
C1304      H1320   1.110       .  S
C1304      H1321   1.110       .  S
C1304      H1322   1.111       .  S
C1306      H1317   1.111       .  S
C1306      H1318   1.110       .  S
C1306      H1319   1.107       .  S
C1308      C1309   1.403       .  A
C1308      C1313   1.506   1_455  S
C1309      C1310   1.405       .  A
C1309      H1314   1.084       .  S
C1310      C1311   1.419       .  A
C1311      C1312   1.403       .  A
C1311      C1315   1.509       .  S
C1312      H1316   1.085       .  S
C1313      H1323   1.111       .  S
C1313      H1324   1.110       .  S
C1313      H1325   1.110   1_655  S
C1315      H1326   1.110       .  S
C1315      H1327   1.106       .  S
C1315      H1328   1.111       .  S
C1329      C1330   1.399       .  A
C1329      C1334   1.404       .  A
C1329      H1339   1.084       .  S
C1330      C1335   1.476       .  S
C1330      C1331   1.408       .  A
C1331      C1332   1.401       .  A
C1331      C1336   1.507       .  S
C1332      C1333   1.407       .  A
C1332      H1337   1.084       .  S
C1333      C1334   1.419       .  A
C1334      C1338   1.508       .  S
C1335      C1340   1.410       .  A
C1335      C1344   1.400       .  A
C1336      H1352   1.110       .  S
C1336      H1353   1.110       .  S
C1336      H1354   1.111       .  S
C1338      H1349   1.109       .  S
C1338      H1350   1.111       .  S
C1338      H1351   1.111       .  S
C1340      C1341   1.403       .  A
C1340      C1345   1.506       .  S
C1341      C1342   1.404       .  A
C1341      H1346   1.084       .  S
C1342      C1343   1.416       .  A
C1343      C1344   1.401       .  A
C1343      C1347   1.509       .  S
C1344      H1348   1.085       .  S
C1345      H1355   1.111       .  S
C1345      H1356   1.110       .  S
C1345      H1357   1.110       .  S
C1347      H1358   1.111       .  S
C1347      H1359   1.107       .  S
C1347      H1360   1.110       .  S
C1361      C1362   1.400       .  A
C1361      C1366   1.402       .  A
C1361      H1371   1.085       .  S
C1362      C1367   1.480       .  S
C1362      C1363   1.410       .  A
C1363      C1364   1.404       .  A
C1363      C1368   1.506       .  S
C1364      C1365   1.405       .  A
C1364      H1369   1.084       .  S
C1365      C1366   1.418       .  A
C1366      C1370   1.509       .  S
C1367      C1372   1.408       .  A
C1367      C1376   1.399       .  A
C1368      H1384   1.110       .  S
C1368      H1385   1.110       .  S
C1368      H1386   1.111       .  S
C1370      H1381   1.110       .  S
C1370      H1382   1.111       .  S
C1370      H1383   1.105       .  S
C1372      C1373   1.401       .  A
C1372      C1377   1.507       .  S
C1373      C1374   1.408       .  A
C1373      H1378   1.084       .  S
C1374      C1375   1.423       .  A
C1375      C1376   1.404       .  A
C1375      C1379   1.509       .  S
C1376      H1380   1.085       .  S
C1377      H1387   1.111       .  S
C1377      H1388   1.110       .  S
C1377      H1389   1.110       .  S
C1379      H1390   1.111       .  S
C1379      H1391   1.100       .  S
C1379      H1392   1.110       .  S
C1393      C1394   1.400       .  A
C1393      C1398   1.402   1_655  A
C1393      H1403   1.085   1_655  S
C1394      C1399   1.477       .  S
C1394      C1395   1.409   1_565  A
C1395      C1396   1.402       .  A
C1395      C1400   1.507       .  S
C1396      C1397   1.405   1_545  A
C1396      H1401   1.084       .  S
C1397      C1398   1.418   1_655  A
C1398      C1402   1.509       .  S
C1399      C1404   1.409   1_655  A
C1399      C1408   1.401       .  A
C1400      H1416   1.110       .  S
C1400      H1417   1.110   1_655  S
C1400      H1418   1.111       .  S
C1402      H1413   1.111       .  S
C1402      H1414   1.110   1_455  S
C1402      H1415   1.106       .  S
C1404      C1405   1.401       .  A
C1404      C1409   1.507   1_565  S
C1405      C1406   1.404   1_455  A
C1405      H1410   1.084   1_565  S
C1406      C1407   1.417       .  A
C1407      C1408   1.403       .  A
C1407      C1411   1.508       .  S
C1408      H1412   1.084       .  S
C1409      H1419   1.111       .  S
C1409      H1420   1.110       .  S
C1409      H1421   1.110       .  S
C1411      H1422   1.110       .  S
C1411      H1423   1.107       .  S
C1411      H1424   1.111       .  S
C1425      C1426   1.400       .  A
C1425      C1430   1.403   1_565  A
C1425      H1435   1.085   1_565  S
C1426      C1431   1.480       .  S
C1426      C1427   1.409       .  A
C1427      C1428   1.403       .  A
C1427      C1432   1.506       .  S
C1428      C1429   1.406       .  A
C1428      H1433   1.084       .  S
C1429      C1430   1.418   1_565  A
C1430      C1434   1.509       .  S
C1431      C1436   1.410       .  A
C1431      C1440   1.400       .  A
C1432      H1448   1.110       .  S
C1432      H1449   1.110       .  S
C1432      H1450   1.111       .  S
C1434      H1445   1.111       .  S
C1434      H1446   1.110       .  S
C1434      H1447   1.106       .  S
C1436      C1437   1.404       .  A
C1436      C1441   1.506       .  S
C1437      C1438   1.404       .  A
C1437      H1442   1.084       .  S
C1438      C1439   1.417       .  A
C1439      C1440   1.403       .  A
C1439      C1443   1.509   1_565  S
C1440      H1444   1.085   1_565  S
C1441      H1451   1.111       .  S
C1441      H1452   1.110       .  S
C1441      H1453   1.110       .  S
C1443      H1454   1.110       .  S
C1443      H1455   1.107       .  S
C1443      H1456   1.111       .  S
C1457      C1458   1.400       .  A
C1457      C1462   1.402       .  A
C1457      H1467   1.085       .  S
C1458      C1463   1.478       .  S
C1458      C1459   1.409   1_565  A
C1459      C1460   1.403       .  A
C1459      C1464   1.506       .  S
C1460      C1461   1.405   1_545  A
C1460      H1465   1.084       .  S
C1461      C1462   1.418       .  A
C1462      C1466   1.509       .  S
C1463      C1468   1.410   1_565  A
C1463      C1472   1.400       .  A
C1464      H1480   1.110       .  S
C1464      H1481   1.110       .  S
C1464      H1482   1.111       .  S
C1466      H1477   1.111       .  S
C1466      H1478   1.110       .  S
C1466      H1479   1.106       .  S
C1468      C1469   1.403       .  A
C1468      C1473   1.506       .  S
C1469      C1470   1.404   1_545  A
C1469      H1474   1.084       .  S
C1470      C1471   1.416       .  A
C1471      C1472   1.403       .  A
C1471      C1475   1.508       .  S
C1472      H1476   1.084       .  S
C1473      H1483   1.111       .  S
C1473      H1484   1.110       .  S
C1473      H1485   1.110       .  S
C1475      H1486   1.109       .  S
C1475      H1487   1.110       .  S
C1475      H1488   1.111       .  S
C1489      C1490   1.400       .  A
C1489      C1494   1.405       .  A
C1489      H1499   1.084       .  S
C1490      C1495   1.481       .  S
C1490      C1491   1.408       .  A
C1491      C1492   1.403       .  A
C1491      C1496   1.506       .  S
C1492      C1493   1.408       .  A
C1492      H1497   1.084       .  S
C1493      C1494   1.421       .  A
C1494      C1498   1.508       .  S
C1495      C1500   1.410       .  A
C1495      C1504   1.402       .  A
C1496      H1512   1.110       .  S
C1496      H1513   1.110       .  S
C1496      H1514   1.111       .  S
C1498      H1509   1.109       .  S
C1498      H1510   1.111       .  S
C1498      H1511   1.111       .  S
C1500      C1501   1.402       .  A
C1500      C1505   1.506       .  S
C1501      C1502   1.403       .  A
C1501      H1506   1.084       .  S
C1502      C1503   1.416       .  A
C1503      C1504   1.404       .  A
C1503      C1507   1.508       .  S
C1504      H1508   1.084       .  S
C1505      H1515   1.111       .  S
C1505      H1516   1.110       .  S
C1505      H1517   1.110       .  S
C1507      H1518   1.111       .  S
C1507      H1519   1.107       .  S
C1507      H1520   1.110       .  S
C1521      C1522   1.402       .  A
C1521      C1526   1.403       .  A
C1521      H1531   1.084       .  S
C1522      C1527   1.480       .  S
C1522      C1523   1.411       .  A
C1523      C1524   1.404       .  A
C1523      C1528   1.506       .  S
C1524      C1525   1.402       .  A
C1524      H1529   1.084       .  S
C1525      C1526   1.415       .  A
C1526      C1530   1.508       .  S
C1527      C1532   1.409       .  A
C1527      C1536   1.400       .  A
C1528      H1544   1.110       .  S
C1528      H1545   1.110       .  S
C1528      H1546   1.111       .  S
C1530      H1541   1.110       .  S
C1530      H1542   1.110       .  S
C1530      H1543   1.108       .  S
C1532      C1533   1.403       .  A
C1532      C1537   1.506       .  S
C1533      C1534   1.405       .  A
C1533      H1538   1.084       .  S
C1534      C1535   1.419       .  A
C1535      C1536   1.404       .  A
C1535      C1539   1.509       .  S
C1536      H1540   1.085       .  S
C1537      H1547   1.111       .  S
C1537      H1548   1.110       .  S
C1537      H1549   1.110       .  S
C1539      H1550   1.111       .  S
C1539      H1551   1.106       .  S
C1539      H1552   1.110       .  S
C1553      C1554   1.401       .  A
C1553      C1558   1.403       .  A
C1553      H1563   1.084       .  S
C1554      C1559   1.480       .  S
C1554      C1555   1.410       .  A
C1555      C1556   1.404       .  A
C1555      C1560   1.507       .  S
C1556      C1557   1.405       .  A
C1556      H1561   1.084       .  S
C1557      C1558   1.417       .  A
C1558      C1562   1.508       .  S
C1559      C1564   1.410       .  A
C1559      C1568   1.400       .  A
C1560      H1576   1.110       .  S
C1560      H1577   1.110       .  S
C1560      H1578   1.111       .  S
C1562      H1573   1.110       .  S
C1562      H1574   1.111       .  S
C1562      H1575   1.107       .  S
C1564      C1565   1.403       .  A
C1564      C1569   1.507       .  S
C1565      C1566   1.405       .  A
C1565      H1570   1.084       .  S
C1566      C1567   1.419       .  A
C1567      C1568   1.404       .  A
C1567      C1571   1.509       .  S
C1568      H1572   1.085       .  S
C1569      H1579   1.111       .  S
C1569      H1580   1.110       .  S
C1569      H1581   1.109       .  S
C1571      H1582   1.111       .  S
C1571      H1583   1.106       .  S
C1571      H1584   1.110       .  S
C1585      C1586   1.400       .  A
C1585      C1590   1.401       .  A
C1585      H1595   1.085       .  S
C1586      C1591   1.478       .  S
C1586      C1587   1.410       .  A
C1587      C1588   1.404       .  A
C1587      C1592   1.506       .  S
C1588      C1589   1.405       .  A
C1588      H1593   1.084       .  S
C1589      C1590   1.417       .  A
C1590      C1594   1.509       .  S
C1591      C1596   1.409       .  A
C1591      C1600   1.399       .  A
C1592      H1608   1.110       .  S
C1592      H1609   1.110       .  S
C1592      H1610   1.111       .  S
C1594      H1605   1.110       .  S
C1594      H1606   1.111       .  S
C1594      H1607   1.106       .  S
C1596      C1597   1.404       .  A
C1596      C1601   1.506       .  S
C1597      C1598   1.406       .  A
C1597      H1602   1.084       .  S
C1598      C1599   1.419       .  A
C1599      C1600   1.402       .  A
C1599      C1603   1.509       .  S
C1600      H1604   1.085       .  S
C1601      H1611   1.111       .  S
C1601      H1612   1.110       .  S
C1601      H1613   1.110       .  S
C1603      H1614   1.111       .  S
C1603      H1615   1.106       .  S
C1603      H1616   1.110       .  S
C1617      C1618   1.399       .  A
C1617      C1622   1.405       .  A
C1617      H1627   1.084       .  S
C1618      C1623   1.480       .  S
C1618      C1619   1.408   1_545  A
C1619      C1620   1.403       .  A
C1619      C1624   1.507       .  S
C1620      C1621   1.407   1_565  A
C1620      H1625   1.084       .  S
C1621      C1622   1.422       .  A
C1622      C1626   1.508       .  S
C1623      C1628   1.410   1_545  A
C1623      C1632   1.401       .  A
C1624      H1640   1.110       .  S
C1624      H1641   1.110       .  S
C1624      H1642   1.111       .  S
C1626      H1637   1.109       .  S
C1626      H1638   1.111       .  S
C1626      H1639   1.111       .  S
C1628      C1629   1.402       .  A
C1628      C1633   1.506       .  S
C1629      C1630   1.403   1_565  A
C1629      H1634   1.084       .  S
C1630      C1631   1.417       .  A
C1631      C1632   1.403       .  A
C1631      C1635   1.509       .  S
C1632      H1636   1.084       .  S
C1633      H1643   1.111       .  S
C1633      H1644   1.110   1_565  S
C1633      H1645   1.110       .  S
C1635      H1646   1.111       .  S
C1635      H1647   1.107       .  S
C1635      H1648   1.110       .  S
C1649      C1650   1.400   1_545  A
C1649      C1654   1.401       .  A
C1649      H1659   1.085       .  S
C1650      C1655   1.477       .  S
C1650      C1651   1.410       .  A
C1651      C1652   1.402       .  A
C1651      C1656   1.506       .  S
C1652      C1653   1.403       .  A
C1652      H1657   1.084       .  S
C1653      C1654   1.416   1_565  A
C1654      C1658   1.508       .  S
C1655      C1660   1.407       .  A
C1655      C1664   1.398   1_565  A
C1656      H1672   1.110       .  S
C1656      H1673   1.110       .  S
C1656      H1674   1.111       .  S
C1658      H1669   1.111       .  S
C1658      H1670   1.110       .  S
C1658      H1671   1.107       .  S
C1660      C1661   1.401       .  A
C1660      C1665   1.507       .  S
C1661      C1662   1.409       .  A
C1661      H1666   1.083       .  S
C1662      C1663   1.423   1_565  A
C1663      C1664   1.404       .  A
C1663      C1667   1.508       .  S
C1664      H1668   1.084       .  S
C1665      H1675   1.111       .  S
C1665      H1676   1.110       .  S
C1665      H1677   1.110       .  S
C1667      H1678   1.111       .  S
C1667      H1679   1.110       .  S
C1667      H1680   1.110       .  S
C1681      C1682   1.401   1_455  A
C1681      C1686   1.404       .  A
C1681      H1691   1.084       .  S
C1682      C1687   1.484   1_655  S
C1682      C1683   1.411       .  A
C1683      C1684   1.405       .  A
C1683      C1688   1.506       .  S
C1684      C1685   1.404       .  A
C1684      H1689   1.084       .  S
C1685      C1686   1.417   1_655  A
C1686      C1690   1.508       .  S
C1687      C1692   1.409       .  A
C1687      C1696   1.400   1_455  A
C1688      H1704   1.110       .  S
C1688      H1705   1.110       .  S
C1688      H1706   1.111       .  S
C1690      H1701   1.110       .  S
C1690      H1702   1.111       .  S
C1690      H1703   1.107       .  S
C1692      C1693   1.405       .  A
C1692      C1697   1.506       .  S
C1693      C1694   1.408       .  A
C1693      H1698   1.084       .  S
C1694      C1695   1.421   1_455  A
C1695      C1696   1.406       .  A
C1695      C1699   1.508       .  S
C1696      H1700   1.084       .  S
C1697      H1707   1.111       .  S
C1697      H1708   1.110       .  S
C1697      H1709   1.110       .  S
C1699      H1710   1.110       .  S
C1699      H1711   1.110       .  S
C1699      H1712   1.111       .  S
C1713      C1714   1.399       .  A
C1713      C1718   1.406       .  A
C1713      H1723   1.084       .  S
C1714      C1719   1.481       .  S
C1714      C1715   1.408   1_655  A
C1715      C1716   1.402       .  A
C1715      C1720   1.508       .  S
C1716      C1717   1.410   1_455  A
C1716      H1721   1.083       .  S
C1717      C1718   1.425       .  A
C1718      C1722   1.508       .  S
C1719      C1724   1.410       .  A
C1719      C1728   1.401   1_655  A
C1720      H1736   1.110       .  S
C1720      H1737   1.110       .  S
C1720      H1738   1.111       .  S
C1722      H1733   1.110       .  S
C1722      H1734   1.111       .  S
C1722      H1735   1.110       .  S
C1724      C1725   1.404       .  A
C1724      C1729   1.506       .  S
C1725      C1726   1.405       .  A
C1725      H1730   1.084       .  S
C1726      C1727   1.417   1_655  A
C1727      C1728   1.402       .  A
C1727      C1731   1.509       .  S
C1728      H1732   1.085       .  S
C1729      H1739   1.111       .  S
C1729      H1740   1.110       .  S
C1729      H1741   1.110   1_655  S
C1731      H1742   1.110   1_455  S
C1731      H1743   1.106       .  S
C1731      H1744   1.111       .  S
C1745      C1746   1.399   1_455  A
C1745      C1750   1.404       .  A
C1745      H1755   1.084       .  S
C1746      C1751   1.478       .  S
C1746      C1747   1.409       .  A
C1747      C1748   1.403       .  A
C1747      C1752   1.506       .  S
C1748      C1749   1.405       .  A
C1748      H1753   1.084       .  S
C1749      C1750   1.419   1_655  A
C1750      C1754   1.508       .  S
C1751      C1756   1.410   1_655  A
C1751      C1760   1.400       .  A
C1752      H1768   1.110       .  S
C1752      H1769   1.110       .  S
C1752      H1770   1.111       .  S
C1754      H1765   1.109       .  S
C1754      H1766   1.111       .  S
C1754      H1767   1.111       .  S
C1756      C1757   1.402       .  A
C1756      C1761   1.506       .  S
C1757      C1758   1.404   1_455  A
C1757      H1762   1.084       .  S
C1758      C1759   1.418       .  A
C1759      C1760   1.403       .  A
C1759      C1763   1.509       .  S
C1760      H1764   1.085       .  S
C1761      H1771   1.111       .  S
C1761      H1772   1.110       .  S
C1761      H1773   1.110       .  S
C1763      H1774   1.111       .  S
C1763      H1775   1.106       .  S
C1763      H1776   1.110       .  S
C1777      C1778   1.400   1_455  A
C1777      C1782   1.402       .  A
C1777      H1787   1.085       .  S
C1778      C1783   1.478       .  S
C1778      C1779   1.410       .  A
C1779      C1780   1.404       .  A
C1779      C1784   1.506       .  S
C1780      C1781   1.404       .  A
C1780      H1785   1.084       .  S
C1781      C1782   1.417   1_655  A
C1782      C1786   1.509       .  S
C1783      C1788   1.409   1_655  A
C1783      C1792   1.400       .  A
C1784      H1800   1.110       .  S
C1784      H1801   1.109       .  S
C1784      H1802   1.111       .  S
C1786      H1797   1.110       .  S
C1786      H1798   1.110       .  S
C1786      H1799   1.106       .  S
C1788      C1789   1.402       .  A
C1788      C1793   1.507       .  S
C1789      C1790   1.406   1_455  A
C1789      H1794   1.084       .  S
C1790      C1791   1.419       .  A
C1791      C1792   1.403       .  A
C1791      C1795   1.509       .  S
C1792      H1796   1.085       .  S
C1793      H1803   1.111       .  S
C1793      H1804   1.110       .  S
C1793      H1805   1.109       .  S
C1795      H1806   1.111       .  S
C1795      H1807   1.106       .  S
C1795      H1808   1.110       .  S
C1809      C1810   1.401   1_655  A
C1809      C1814   1.403       .  A
C1809      H1819   1.084       .  S
C1810      C1815   1.480       .  S
C1810      C1811   1.410       .  A
C1811      C1812   1.402       .  A
C1811      C1816   1.506   1_545  S
C1812      C1813   1.402       .  A
C1812      H1817   1.084   1_545  S
C1813      C1814   1.415   1_455  A
C1814      C1818   1.508       .  S
C1815      C1820   1.408   1_445  A
C1815      C1824   1.399       .  A
C1816      H1832   1.110   1_565  S
C1816      H1833   1.110       .  S
C1816      H1834   1.111       .  S
C1818      H1829   1.110       .  S
C1818      H1830   1.110       .  S
C1818      H1831   1.107       .  S
C1820      C1821   1.403       .  A
C1820      C1825   1.507       .  S
C1821      C1822   1.407   1_665  A
C1821      H1826   1.084       .  S
C1822      C1823   1.422       .  A
C1823      C1824   1.405       .  A
C1823      C1827   1.508       .  S
C1824      H1828   1.084       .  S
C1825      H1835   1.111       .  S
C1825      H1836   1.110       .  S
C1825      H1837   1.110       .  S
C1827      H1838   1.111       .  S
C1827      H1839   1.111       .  S
C1827      H1840   1.110       .  S
C1841      C1842   1.400   1_455  A
C1841      C1846   1.402       .  A
C1841      H1851   1.085       .  S
C1842      C1847   1.477       .  S
C1842      C1843   1.410   1_565  A
C1843      C1844   1.402       .  A
C1843      C1848   1.507       .  S
C1844      C1845   1.404   1_545  A
C1844      H1849   1.084       .  S
C1845      C1846   1.417   1_655  A
C1846      C1850   1.509       .  S
C1847      C1852   1.408   1_665  A
C1847      C1856   1.399       .  A
C1848      H1864   1.110       .  S
C1848      H1865   1.110       .  S
C1848      H1866   1.111       .  S
C1850      H1861   1.111       .  S
C1850      H1862   1.110       .  S
C1850      H1863   1.106       .  S
C1852      C1853   1.401       .  A
C1852      C1857   1.507       .  S
C1853      C1854   1.408   1_445  A
C1853      H1858   1.084       .  S
C1854      C1855   1.421       .  A
C1855      C1856   1.405       .  A
C1855      C1859   1.508       .  S
C1856      H1860   1.084       .  S
C1857      H1867   1.111       .  S
C1857      H1868   1.110       .  S
C1857      H1869   1.110       .  S
C1859      H1870   1.111       .  S
C1859      H1871   1.111       .  S
C1859      H1872   1.109       .  S
