geometry optimzed in LAMMPS
_audit_creation_date              2020-11-30 
_audit_creation_method            'lammps2cif' 
_symmetry_space_group_name_H-M    'P1' 
_symmetry_Int_Tables_number       1 
_symmetry_cell_setting            triclinic 
loop_ 
_symmetry_equiv_pos_as_xyz 
  x,y,z 
_cell_length_a                    43.46791105 
_cell_length_b                    43.64387952433842 
_cell_length_c                    32.56349534372736 
_cell_angle_alpha                 90.12321643329865 
_cell_angle_beta                  89.93941201796122 
_cell_angle_gamma                 119.87536457056811 
loop_ 
_atom_site_label 
_atom_site_type_symbol 
_atom_site_fract_x 
_atom_site_fract_y 
_atom_site_fract_z 
_atom_site_charge 
O1          O  0.47348591  0.44119800  0.33332093    -0.72100
O2          O  0.06026566  0.02773596  0.32854776    -0.72300
O3          O  0.01772538  0.48840491  0.38898123    -0.72200
O4          O  0.01555196  0.48730391  0.27257156    -0.72200
O5          O  0.48577076  0.01632007  0.27638980    -0.72200
O6          O  0.48484867  0.01579128  0.39281509    -0.72200
O7          O  0.03137901  0.05634323  0.33084358    -0.72100
O8          O  0.44374855  0.46894564  0.33131544    -0.72300
V9          V  0.01599061  0.48830104  0.33080582     1.35200
V10         V  0.48600368  0.01563256  0.33463566     1.35200
C11         C  0.44382779  0.43998652  0.33274954     0.77100
C12         C  0.06078029  0.05693475  0.32996684     0.77200
C13         C  0.00299488  0.50232497  0.40918059     0.77100
C14         C  0.00045195  0.99825880  0.25244872     0.77000
O15         O  0.05986164  0.28135908  0.33232994    -0.72100
O16         O  0.47449710  0.19634009  0.33198753    -0.72300
O17         O  0.01666539  0.23800273  0.27389677    -0.72200
O18         O  0.01631347  0.23781237  0.38999510    -0.72200
O19         O  0.48542595  0.26656953  0.38891295    -0.72200
O20         O  0.48988624  0.26897914  0.27236863    -0.72200
O21         O  0.44479068  0.22403935  0.32841377    -0.72100
O22         O  0.03098802  0.30996519  0.33359111    -0.72300
V23         V  0.01589651  0.23846818  0.33192296     1.35200
V24         V  0.48834750  0.26739692  0.33068272     1.35200
C25         C  0.06042755  0.31057633  0.33347247     0.77100
C26         C  0.44485683  0.19510728  0.32998247     0.77200
C27         C  0.00266980  0.25259666  0.25376247     0.77100
C28         C  0.00102944  0.25129823  0.40987614     0.77000
O29         O  0.28143083  0.06211607  0.33305954    -0.72100
O30         O  0.19399226  0.47392414  0.33624302    -0.72300
O31         O  0.23737459  0.01817357  0.39071494    -0.72200
O32         O  0.23860579  0.01918791  0.27433632    -0.72200
O33         O  0.26475757  0.48675930  0.27994605    -0.72200
O34         O  0.26768765  0.48941462  0.39631390    -0.72200
O35         O  0.22232619  0.44484521  0.33966568    -0.72100
O36         O  0.31048075  0.03369546  0.33051096    -0.72300
V37         V  0.23855614  0.01812944  0.33250963     1.35200
V38         V  0.26565815  0.48864811  0.33810779     1.35200
C39         C  0.31084962  0.06287025  0.33134281     0.77100
C40         C  0.19307659  0.44454597  0.33774617     0.77200
C41         C  0.25300063  0.00504679  0.41055850     0.77100
C42         C  0.25212162  0.00392590  0.25441980     0.77000
O43         O  0.22511375  0.18938500  0.33357383    -0.72100
O44         O  0.31133068  0.27749465  0.33278202    -0.72300
O45         O  0.26827234  0.23413388  0.39143686    -0.72200
O46         O  0.26810054  0.23248817  0.27508544    -0.72200
O47         O  0.23892201  0.26089294  0.27431810    -0.72200
O48         O  0.23777318  0.26115733  0.39066488    -0.72200
O49         O  0.28133285  0.30501260  0.33264984    -0.72100
O50         O  0.19540246  0.21719676  0.33223395    -0.72300
V51         V  0.26766396  0.23393080  0.33323630     1.35200
V52         V  0.23895046  0.26052722  0.33249316     1.35200
C53         C  0.19546982  0.18826155  0.33273127     0.77100
C54         C  0.31106593  0.30637733  0.33240643     0.77200
C55         C  0.25292505  0.24777149  0.41096780     0.77100
C56         C  0.25334942  0.24627787  0.25486700     0.77000
O57         O  0.47210691  0.02998051  0.99858461    -0.72100
O58         O  0.05855757  0.03237606  0.99842940    -0.72300
O59         O  0.01579085  0.03130422  0.93867762    -0.72200
O60         O  0.01320909  0.03134724  0.05520590    -0.72200
O61         O  0.48641074  0.47262649  0.05723653    -0.72200
O62         O  0.48110615  0.47025242  0.94101939    -0.72200
O63         O  0.02931977  0.47565709  0.99726057    -0.72100
O64         O  0.44007332  0.47091380  0.00199003    -0.72300
V65         V  0.01399475  0.03026876  0.99693033     1.35200
V66         V  0.48440310  0.47257142  0.99914577     1.35200
C67         C  0.43912106  0.49936838  0.00015717     0.77100
C68         C  0.05874655  0.50410521  0.99907915     0.77200
C69         C  0.00127274  0.00254129  0.91884204     0.77100
C70         C  0.99990672  0.00267907  0.07500494     0.77000
O71         O  0.01838227  0.27470909  0.93954559    -0.72100
O72         O  0.01442115  0.27832363  0.05560155    -0.72300
O73         O  0.05982202  0.27621274  0.00126746    -0.74600
O74         O  0.47309263  0.27620810  0.99343882    -0.72200
O75         O  0.44395416  0.21916811  0.99951226    -0.72200
O76         O  0.03092448  0.21895021  0.99929774    -0.72200
O77         O  0.48863529  0.22020205  0.05709508    -0.72100
O78         O  0.48582940  0.21704694  0.94066771    -0.72300
V79         V  0.01593272  0.27540803  0.99759819     1.35200
V80         V  0.48779069  0.21969385  0.99885204     1.35200
C81         C  0.00227215  0.24559338  0.92055546     0.77100
C82         C  0.00137102  0.25025574  0.07647618     0.77200
C83         C  0.06025385  0.24745506  0.00093297     0.77100
C84         C  0.44369136  0.24789124  0.99604521     0.77000
O85         O  0.27459159  0.46697768  0.00310796    -0.72100
O86         O  0.18851748  0.46853081  0.00754708    -0.72300
O87         O  0.22950107  0.46726187  0.94701757    -0.72200
O88         O  0.23365052  0.46840177  0.06354280    -0.72200
O89         O  0.26358044  0.03016646  0.05726929    -0.72200
O90         O  0.26542954  0.03012776  0.94094246    -0.72200
O91         O  0.22082280  0.03007619  0.99792467    -0.72100
O92         O  0.30803697  0.02996907  0.00025923    -0.72300
V93         V  0.23210215  0.46886041  0.00530277     1.35200
V94         V  0.26391967  0.02902719  0.99909462     1.35200
C95         C  0.30406360  0.49527303  0.00427660     0.77100
C96         C  0.18826965  0.49726731  0.00556896     0.77200
C97         C  0.24543618  0.49579821  0.92699214     0.77100
C98         C  0.24754173  0.49733029  0.08302554     0.77000
O99         O  0.31020635  0.27596386  0.00005942    -0.72100
O100        O  0.22407385  0.27791141  0.99985607    -0.72300
O101        O  0.26665690  0.27650905  0.05803009    -0.72200
O102        O  0.26785306  0.27761146  0.94186402    -0.72200
O103        O  0.23649130  0.22033484  0.94092610    -0.72200
O104        O  0.23867870  0.21917488  0.05740579    -0.72200
O105        O  0.19457986  0.22066015  0.00125295    -0.72100
O106        O  0.28057497  0.21872669  0.99717961    -0.72300
V107        V  0.26662157  0.27589255  0.99993909     1.35200
V108        V  0.23814566  0.22080842  0.99918190     1.35200
C109        C  0.31013583  0.24699013  0.99817251     0.77100
C110        C  0.19454225  0.24960074  0.00127421     0.77200
C111        C  0.25249414  0.24773909  0.07761334     0.77100
C112        C  0.25237216  0.24921228  0.92152788     0.77000
O113        O  0.02978579  0.47076618  0.66420580    -0.72100
O114        O  0.03335075  0.05974600  0.66062199    -0.72300
O115        O  0.03268055  0.01853693  0.72191857    -0.72200
O116        O  0.03304231  0.01351464  0.60575769    -0.72200
O117        O  0.46955823  0.48590595  0.60672136    -0.72200
O118        O  0.46895830  0.48525141  0.72335634    -0.72200
O119        O  0.47143385  0.03053527  0.66934408    -0.72100
O120        O  0.46897176  0.44199222  0.66482297    -0.72300
V121        V  0.03170026  0.01542788  0.66383794     1.35200
V122        V  0.47027254  0.48610220  0.66500146     1.35200
C123        C  0.00064571  0.44189108  0.66332496     0.77100
C124        C  0.00476083  0.06072601  0.66223202     0.77200
C125        C  0.00385364  0.00324910  0.74164486     0.77100
C126        C  0.00441591  0.00134221  0.58579319     0.77000
O127        O  0.47069982  0.27971792  0.66693200    -0.72100
O128        O  0.47006848  0.19240776  0.66389105    -0.72300
O129        O  0.47161837  0.23544542  0.72360779    -0.72200
O130        O  0.46911203  0.23655597  0.60709437    -0.72200
O131        O  0.02866920  0.26421960  0.60628067    -0.72200
O132        O  0.03073377  0.26459748  0.72259679    -0.72200
O133        O  0.02973335  0.22104886  0.66376824    -0.72100
O134        O  0.02981153  0.30794384  0.66489874    -0.72300
V135        V  0.47146280  0.23657384  0.66534554     1.35200
V136        V  0.02860599  0.26391812  0.66443902     1.35200
C137        C  0.00121098  0.30884662  0.66605181     0.77100
C138        C  0.00098687  0.19186746  0.66365395     0.77200
C139        C  0.50086298  0.24930482  0.74264471     0.77100
C140        C  0.49755015  0.25093240  0.58651518     0.77000
O141        O  0.27682487  0.01438149  0.72405762    -0.72100
O142        O  0.27703863  0.01302391  0.60790376    -0.72300
O143        O  0.27744999  0.05747431  0.66527866    -0.72200
O144        O  0.27569745  0.47075614  0.67207809    -0.72200
O145        O  0.21836124  0.44052879  0.66796790    -0.72200
O146        O  0.21998658  0.02936449  0.66848569    -0.72200
O147        O  0.21748223  0.48535521  0.61254565    -0.72100
O148        O  0.21515412  0.48048768  0.72887744    -0.72300
V149        V  0.27573041  0.01304214  0.66599681     1.35200
V150        V  0.21741124  0.48352337  0.67071110     1.35200
C151        C  0.24348145  0.49612774  0.74953979     0.77100
C152        C  0.24664518  0.49997313  0.59337852     0.77200
C153        C  0.24882013  0.05839637  0.66696231     0.77100
C154        C  0.24772510  0.44104410  0.66910986     0.77000
O155        O  0.22169054  0.23472116  0.72441606    -0.72100
O156        O  0.22134061  0.23687161  0.60808984    -0.72300
O157        O  0.22245523  0.19290707  0.66494933    -0.72200
O158        O  0.22059159  0.27878106  0.66777619    -0.72200
O159        O  0.27794552  0.30829308  0.66364606    -0.72200
O160        O  0.27987681  0.22219880  0.66867387    -0.72200
O161        O  0.27891107  0.26319275  0.60802873    -0.72100
O162        O  0.27909408  0.26715526  0.72431889    -0.72300
V163        V  0.22261834  0.23640628  0.66628871     1.35200
V164        V  0.27789463  0.26470544  0.66615502     1.35200
C165        C  0.25044140  0.25061773  0.74424438     0.77100
C166        C  0.25010361  0.24990424  0.58822673     0.77200
C167        C  0.25141465  0.19274411  0.66737522     0.77100
C168        C  0.24883306  0.30828699  0.66535523     0.77000
C169        C  0.21669685  0.37532442  0.66670265    -0.26700
C170        C  0.24888493  0.40752939  0.66700016    -0.14700
C171        C  0.28111085  0.40688279  0.66515459     0.35900
C172        C  0.28023470  0.37422152  0.66466021    -0.26100
C173        C  0.24801001  0.34201051  0.66487031    -0.15300
C174        C  0.21578989  0.34272259  0.66507537     0.37000
N175        N  0.18214992  0.31050635  0.66362792    -0.89600
H176        H  0.19185067  0.37545642  0.66751622     0.18100
H177        H  0.30505233  0.37402687  0.66393923     0.18100
N178        N  0.31465786  0.43918732  0.66372137    -0.88600
H179        H  0.17996439  0.29922112  0.63463872     0.35500
H180        H  0.16119001  0.31570772  0.66585291     0.40600
H181        H  0.31610853  0.45118051  0.63546248     0.40200
H182        H  0.33567699  0.43398469  0.66410473     0.35100
C183        C  0.28059505  0.12372882  0.67718135    -0.26700
C184        C  0.24908287  0.09257323  0.66717751    -0.14700
C185        C  0.21836731  0.09458290  0.65778569     0.35900
C186        C  0.21994954  0.12748970  0.65867648    -0.26100
C187        C  0.25149478  0.15872024  0.66831144    -0.15300
C188        C  0.28210616  0.15668531  0.67829972     0.37000
N189        N  0.31449801  0.18783590  0.69000022    -0.89600
H190        H  0.30410876  0.12232765  0.68486303     0.18100
H191        H  0.19634673  0.12872904  0.65101825     0.18100
N192        N  0.18575323  0.06340406  0.64668056    -0.88600
H193        H  0.33462727  0.18183068  0.69533233     0.35500
H194        H  0.30989389  0.19657932  0.71804183     0.40600
H195        H  0.18987449  0.05448833  0.61849502     0.40200
H196        H  0.16551970  0.06936301  0.64192223     0.35100
C197        C  0.46715243  0.34257615  0.66818249    -0.26700
C198        C  0.00143782  0.34307087  0.66560424    -0.14700
C199        C  0.03329892  0.37588737  0.66798462     0.35900
C200        C  0.03228290  0.40749381  0.66683182    -0.26100
C201        C  0.00005895  0.40748404  0.66347200    -0.15300
C202        C  0.46575465  0.37401663  0.66804623     0.37000
N203        N  0.43189673  0.37210493  0.66940295    -0.89600
H204        H  0.44242341  0.31766261  0.66901974     0.18100
H205        H  0.05709335  0.43225443  0.66887284     0.18100
N206        N  0.06689767  0.37749417  0.67190037    -0.88600
H207        H  0.41875364  0.35848154  0.69601144     0.35500
H208        H  0.41709592  0.35741367  0.64407229     0.40600
H209        H  0.07896849  0.39118811  0.69892783     0.40200
H210        H  0.08283432  0.39197741  0.64715738     0.35100
C211        C  0.46874775  0.09317645  0.66039299    -0.26700
C212        C  0.00449259  0.09463012  0.66181354    -0.14700
C213        C  0.03536755  0.12743244  0.65451622     0.35900
C214        C  0.03354131  0.15864607  0.65519853    -0.26100
C215        C  0.00138855  0.15803863  0.66283727    -0.15300
C216        C  0.46726371  0.12453434  0.65793880     0.37000
N217        N  0.43388075  0.12285505  0.65024352    -0.89600
H218        H  0.44448485  0.06814857  0.65650601     0.18100
H219        H  0.05756124  0.18351817  0.64949730     0.18100
N220        N  0.06863004  0.12935083  0.64605848    -0.88600
H221        H  0.41325706  0.09663356  0.64880979     0.35500
H222        H  0.43541216  0.13365394  0.62116720     0.40600
H223        H  0.08695494  0.14570409  0.66813554     0.40200
H224        H  0.07748372  0.14121633  0.61734231     0.35100
C225        C  0.22456391  0.22190512  0.85482414    -0.26700
C226        C  0.25258046  0.24971576  0.87621016    -0.14700
C227        C  0.28027582  0.27746029  0.85394374     0.35900
C228        C  0.27914263  0.27719794  0.81093626    -0.26100
C229        C  0.25069253  0.24978787  0.78956469    -0.15300
C230        C  0.22332311  0.22173772  0.81183709     0.37000
N231        N  0.19458922  0.19261328  0.79100360    -0.89600
H232        H  0.20325521  0.20028074  0.87152688     0.18100
H233        H  0.30055188  0.29873221  0.79423777     0.18100
N234        N  0.30999471  0.30556776  0.87476382    -0.88600
H235        H  0.17087182  0.19082692  0.80095393     0.35500
H236        H  0.19438151  0.16946640  0.79971967     0.40600
H237        H  0.31164175  0.32942588  0.86624624     0.40200
H238        H  0.33301105  0.30595031  0.86459974     0.35100
C239        C  0.27415706  0.02906859  0.80963341    -0.26700
C240        C  0.24312508  0.49546371  0.79502827    -0.14700
C241        C  0.21341418  0.47056998  0.81766665     0.35900
C242        C  0.21490592  0.47073526  0.86070311    -0.26100
C243        C  0.24528733  0.49574224  0.88172049    -0.15300
C244        C  0.27517119  0.03058951  0.85260677     0.37000
N245        N  0.30197865  0.06177105  0.87262250    -0.89600
H246        H  0.29342059  0.05176604  0.79231953     0.18100
H247        H  0.19193627  0.45155710  0.87778464     0.18100
N248        N  0.18178301  0.44487705  0.79726534    -0.88600
H249        H  0.29934629  0.08317734  0.86292971     0.35500
H250        H  0.32677237  0.06608805  0.86295246     0.40600
H251        H  0.16073262  0.44806438  0.80749886     0.40200
H252        H  0.17667868  0.41974824  0.80607454     0.35100
C253        C  0.37780329  0.21591416  0.99855546    -0.26700
C254        C  0.40977234  0.24814287  0.99548564    -0.14700
C255        C  0.40859290  0.27982818  0.99258098     0.35900
C256        C  0.37585695  0.27868751  0.99345001    -0.26100
C257        C  0.34391891  0.24650686  0.99698824    -0.15300
C258        C  0.34504826  0.21477505  0.99931456     0.37000
N259        N  0.31316580  0.18128360  0.00284900    -0.89600
H260        H  0.37806222  0.19126790  0.00066375     0.18100
H261        H  0.37559877  0.30333261  0.99129052     0.18100
N262        N  0.44043304  0.31333204  0.98883418    -0.88600
H263        H  0.31464164  0.16916891  0.02986523     0.35500
H264        H  0.31209771  0.16550606  0.97806816     0.40600
H265        H  0.44150617  0.32925394  0.01345813     0.40200
H266        H  0.43890254  0.32525530  0.96168374     0.35100
C267        C  0.12871491  0.21743274  0.00068140    -0.26700
C268        C  0.16059287  0.24986004  0.00271346    -0.14700
C269        C  0.15921412  0.28150615  0.00574526     0.35900
C270        C  0.12614878  0.27989838  0.00499324    -0.26100
C271        C  0.09432677  0.24746012  0.00223598    -0.15300
C272        C  0.09580266  0.21589796  0.00062615     0.37000
N273        N  0.06408176  0.18211623  0.99873043    -0.89600
H274        H  0.12914484  0.19285432  0.99883125     0.18100
H275        H  0.12532799  0.30426645  0.00682491     0.18100
N276        N  0.19115411  0.31515344  0.00965813    -0.88600
H277        H  0.06387129  0.16723201  0.02396500     0.35500
H278        H  0.06500047  0.16922852  0.97204475     0.40600
H279        H  0.20219311  0.31566507  0.03834827     0.40200
H280        H  0.18541996  0.33574890  0.00991472     0.35100
C281        C  0.03039544  0.27328396  0.85437490    -0.26700
C282        C  0.00229549  0.24495246  0.87510304    -0.14700
C283        C  0.47078794  0.22131654  0.85200869     0.35900
C284        C  0.47127608  0.22359143  0.80919943    -0.26100
C285        C  0.50181253  0.24832301  0.78806832    -0.15300
C286        C  0.03106417  0.27550198  0.81136461     0.37000
N287        N  0.05979279  0.30523930  0.79105591    -0.89600
H288        H  0.05190567  0.29404237  0.87186142     0.18100
H289        H  0.44750354  0.20568541  0.79234335     0.18100
N290        N  0.43845494  0.19601959  0.87152070    -0.88600
H291        H  0.07850014  0.32229405  0.81237987     0.35500
H292        H  0.04931763  0.31952977  0.77689557     0.40600
H293        H  0.43073073  0.20929111  0.89220739     0.40200
H294        H  0.44302328  0.17797791  0.88759842     0.35100
C295        C  0.37348607  0.46649471  0.99632651    -0.26700
C296        C  0.40489414  0.49889457  0.00182630    -0.14700
C297        C  0.40720919  0.03482825  0.99749340     0.35900
C298        C  0.37431655  0.03328509  0.99714243    -0.26100
C299        C  0.33804627  0.49513514  0.00401812    -0.15300
C300        C  0.34029628  0.46417850  0.99742408     0.37000
N301        N  0.30969925  0.43003495  0.99141899    -0.89600
H302        H  0.37459515  0.44256470  0.99079639     0.18100
H303        H  0.37388526  0.05784611  0.99499569     0.18100
N304        N  0.43835917  0.06900905  0.99519089    -0.88600
H305        H  0.29573785  0.43089962  0.96575936     0.35500
H306        H  0.29363287  0.42336314  0.01753664     0.40600
H307        H  0.45275266  0.07009539  0.96895463     0.40200
H308        H  0.45376359  0.07300302  0.02140924     0.35100
C309        C  0.09046543  0.47018354  0.00027148    -0.26700
C310        C  0.09234454  0.50325536  0.00115509    -0.14700
C311        C  0.12655150  0.03425828  0.98639454     0.35900
C312        C  0.15769867  0.03238900  0.98713431    -0.26100
C313        C  0.15465135  0.49810221  0.00502381    -0.15300
C314        C  0.12088818  0.46718200  0.00226076     0.37000
N315        N  0.11626830  0.43231458  0.00108234    -0.89600
H316        H  0.06501748  0.44612599  0.99794982     0.18100
H317        H  0.18226348  0.05546489  0.97786850     0.18100
N318        N  0.12894622  0.06655734  0.97272216    -0.88600
H319        H  0.12650535  0.42794936  0.02804627     0.35500
H320        H  0.12971065  0.43015717  0.97557486     0.40600
H321        H  0.12148209  0.07740492  0.99671729     0.40200
H322        H  0.11180491  0.06105825  0.94779589     0.35100
C323        C  0.52723955  0.02624510  0.85678052    -0.26700
C324        C  0.00156497  0.00238583  0.87344938    -0.14700
C325        C  0.97165366  0.47600816  0.85217416     0.35900
C326        C  0.97285840  0.47602584  0.80919367    -0.26100
C327        C  0.00357458  0.00362230  0.78684106    -0.15300
C328        C  0.52795718  0.02724754  0.81378225     0.37000
N329        N  0.55709083  0.05611264  0.79319589    -0.89600
H330        H  0.54914201  0.04715217  0.87366250     0.18100
H331        H  0.95051642  0.45548997  0.79247137     0.18100
N332        N  0.94074974  0.44955926  0.87297917    -0.88600
H333        H  0.58044839  0.05666931  0.80218591     0.35500
H334        H  0.55847880  0.07958028  0.80308351     0.40600
H335        H  0.93696011  0.42478117  0.86455733     0.40200
H336        H  0.91886257  0.45125128  0.86269576     0.35100
C337        C  0.22647911  0.25267864  0.47669625    -0.26700
C338        C  0.25241097  0.24800671  0.45639780    -0.14700
C339        C  0.27743736  0.24396195  0.47985205     0.35900
C340        C  0.27627154  0.24492957  0.52277833    -0.26100
C341        C  0.25026488  0.24937394  0.54298423    -0.15300
C342        C  0.22509090  0.25335919  0.51976882     0.37000
N343        N  0.19866854  0.25870717  0.53991196    -0.89600
H344        H  0.20714032  0.25576028  0.45891519     0.18100
H345        H  0.29565758  0.24180139  0.54043312     0.18100
N346        N  0.30446636  0.23942259  0.46035751    -0.88600
H347        H  0.18206088  0.26091527  0.51837106     0.35500
H348        H  0.21184480  0.28292534  0.55537361     0.40600
H349        H  0.30197289  0.21557485  0.47051561     0.40200
H350        H  0.32915611  0.25991737  0.46998158     0.35100
C351        C  0.25569788  0.27525325  0.18896954    -0.26700
C352        C  0.25320973  0.24593964  0.20960312    -0.14700
C353        C  0.24959241  0.21680055  0.18658776     0.35900
C354        C  0.24897401  0.21783922  0.14372342    -0.26100
C355        C  0.25220135  0.24748285  0.12300128    -0.15300
C356        C  0.25515414  0.27637775  0.14594465     0.37000
N357        N  0.25701545  0.30650158  0.12565728    -0.89600
H358        H  0.25815519  0.29748075  0.20655547     0.18100
H359        H  0.24634235  0.19537790  0.12649639     0.18100
N360        N  0.24543554  0.18542097  0.20573023    -0.88600
H361        H  0.25967318  0.32557554  0.14702321     0.35500
H362        H  0.23276358  0.29797737  0.11075632     0.40600
H363        H  0.22379527  0.17569252  0.22579366     0.40200
H364        H  0.26836207  0.19177992  0.22242667     0.35100
C365        C  0.22424204  0.00478958  0.47664640    -0.26700
C366        C  0.25119614  0.50194361  0.46141988    -0.14700
C367        C  0.28020573  0.50582554  0.48473040     0.35900
C368        C  0.27832496  0.50541235  0.52773428    -0.26100
C369        C  0.24770383  0.50072709  0.54799123    -0.15300
C370        C  0.22223623  0.00340494  0.51964069     0.37000
N371        N  0.19316620  0.00384347  0.53984686    -0.89600
H372        H  0.20324600  0.00543069  0.45942517     0.18100
H373        H  0.30086118  0.50847782  0.54529178     0.18100
N374        N  0.31190756  0.51104510  0.46493067    -0.88600
H375        H  0.16962108  0.98218264  0.52936267     0.35500
H376        H  0.19309185  0.02685154  0.53112637     0.40600
H377        H  0.31667943  0.49090492  0.47437751     0.40200
H378        H  0.33301972  0.53510964  0.47508066     0.35100
C379        C  0.25170082  0.03009598  0.14345712    -0.26700
C380        C  0.24873492  0.49828247  0.12832039    -0.14700
C381        C  0.24921318  0.47121897  0.15136108     0.35900
C382        C  0.25066360  0.47339673  0.19431483    -0.26100
C383        C  0.25132989  0.50202353  0.21488301    -0.15300
C384        C  0.25200177  0.03129049  0.18645178     0.37000
N385        N  0.25294330  0.06083715  0.20692155    -0.89600
H386        H  0.25150641  0.05133658  0.12648771     0.18100
H387        H  0.25087725  0.45232843  0.21164329     0.18100
N388        N  0.24901473  0.44186310  0.13133598    -0.88600
H389        H  0.23065486  0.06230943  0.19782267     0.35500
H390        H  0.27553846  0.08381532  0.19704197     0.40600
H391        H  0.22698190  0.41867988  0.14183396     0.40200
H392        H  0.27185142  0.44131823  0.14019303     0.35100
C393        C  0.46956875  0.24813717  0.47504307    -0.26700
C394        C  0.00071665  0.25092388  0.45512678    -0.14700
C395        C  0.02920820  0.25269692  0.47763961     0.35900
C396        C  0.02822900  0.25267698  0.52056899    -0.26100
C397        C  0.49736082  0.25149938  0.54107801    -0.15300
C398        C  0.46775969  0.24710700  0.51819729     0.37000
N399        N  0.43620079  0.24199774  0.53861291    -0.89600
H400        H  0.44693431  0.24465726  0.45736308     0.18100
H401        H  0.05040051  0.25410945  0.53742338     0.18100
N402        N  0.05960135  0.25534862  0.45708118    -0.88600
H403        H  0.41677301  0.23845098  0.51725245     0.35500
H404        H  0.44276259  0.26529566  0.55459181     0.40600
H405        H  0.06259266  0.23404380  0.46630123     0.40200
H406        H  0.08198619  0.27863408  0.46677133     0.35100
C407        C  0.37887794  0.16112153  0.32579695    -0.26700
C408        C  0.41095183  0.16089246  0.32972042    -0.14700
C409        C  0.40979087  0.12808896  0.33369131     0.35900
C410        C  0.37697851  0.09662061  0.33397920    -0.26100
C411        C  0.34490512  0.09690366  0.33042006    -0.15300
C412        C  0.34609867  0.12968308  0.32602200     0.37000
N413        N  0.31420749  0.13138683  0.32142448    -0.89600
H414        H  0.37905461  0.18590835  0.32249021     0.18100
H415        H  0.37673932  0.07180463  0.33731192     0.18100
N416        N  0.44172314  0.12638708  0.33769626    -0.88600
H417        H  0.31562407  0.14393138  0.29359004     0.35500
H418        H  0.31317700  0.14700519  0.34518420     0.40600
H419        H  0.44259184  0.11091334  0.31366178     0.40200
H420        H  0.44049987  0.11367299  0.36533882     0.35100
C421        C  0.09411125  0.37658226  0.33505081    -0.26700
C422        C  0.09459811  0.34462793  0.33471758    -0.14700
C423        C  0.12775498  0.34592206  0.33570573     0.35900
C424        C  0.15926503  0.37864542  0.33684278    -0.26100
C425        C  0.15880315  0.41059791  0.33701095    -0.15300
C426        C  0.12565783  0.40933275  0.33617193     0.37000
N427        N  0.12366435  0.44112214  0.33649471    -0.89600
H428        H  0.06905671  0.37631656  0.33439148     0.18100
H429        H  0.18430341  0.37887766  0.33747578     0.18100
N430        N  0.12981413  0.31416721  0.33559467    -0.88600
H431        H  0.10885844  0.44050280  0.36212887     0.35500
H432        H  0.11001049  0.44132530  0.31017242     0.40600
H433        H  0.14340410  0.31403804  0.36201090     0.40200
H434        H  0.14469170  0.31475310  0.31004852     0.35100
C435        C  0.49400638  0.27418672  0.18547152    -0.26700
C436        C  0.00251100  0.25199728  0.20827468    -0.14700
C437        C  0.00948086  0.22822567  0.18614593     0.35900
C438        C  0.00856605  0.22800009  0.14322892    -0.26100
C439        C  0.00132731  0.25136738  0.12162541    -0.15300
C440        C  0.49303143  0.27346777  0.14241384     0.37000
N441        N  0.48251165  0.29524480  0.12062405    -0.89600
H442        H  0.48721951  0.29177797  0.20154904     0.18100
H443        H  0.01404911  0.20967668  0.12665089     0.18100
N444        N  0.01711336  0.20388669  0.20696401    -0.88600
H445        H  0.49985917  0.32156416  0.12867581     0.35500
H446        H  0.45706252  0.28872392  0.13046438     0.40600
H447        H  0.04201446  0.20854589  0.19724099     0.40200
H448        H  0.99821057  0.17826468  0.19807086     0.35100
C449        C  0.98199820  0.00829154  0.47531104    -0.26700
C450        C  0.00350762  0.50277170  0.45445293    -0.14700
C451        C  0.52819007  0.49680662  0.47870736     0.35900
C452        C  0.52668882  0.49722390  0.52170653    -0.26100
C453        C  0.00469852  0.00151749  0.54064545    -0.15300
C454        C  0.98152343  0.00894006  0.51826853     0.37000
N455        N  0.95814115  0.01810317  0.53904712    -0.89600
H456        H  0.96384715  0.01393995  0.45860809     0.18100
H457        H  0.54701356  0.49570069  0.53935607     0.18100
N458        N  0.55676366  0.49503448  0.45905205    -0.88600
H459        H  0.93215393  0.00016463  0.53007742     0.35500
H460        H  0.96404681  0.04326284  0.52926546     0.40600
H461        H  0.55625100  0.47198879  0.46886571     0.40200
H462        H  0.58062748  0.51663461  0.46892885     0.35100
C463        C  0.37625382  0.34191088  0.34431119    -0.26700
C464        C  0.34476491  0.34082430  0.33203822    -0.14700
C465        C  0.34602789  0.37259142  0.32007476     0.35900
C466        C  0.37852704  0.40453226  0.32123055    -0.26100
C467        C  0.41004097  0.40560659  0.33341416    -0.15300
C468        C  0.40874122  0.37383918  0.34549525     0.37000
N469        N  0.44018988  0.37402014  0.35953951    -0.89600
H470        H  0.37545604  0.31775029  0.35382072     0.18100
H471        H  0.37931436  0.42868874  0.31173394     0.18100
N472        N  0.31454927  0.37238809  0.30610544    -0.88600
H473        H  0.43478445  0.34839573  0.36633537     0.35500
H474        H  0.44786358  0.38814137  0.38715176     0.40600
H475        H  0.30682514  0.35823081  0.27849299     0.40200
H476        H  0.31993158  0.39798577  0.29930709     0.35100
C477        C  0.13006246  0.15418613  0.34269056    -0.26700
C478        C  0.16147804  0.15422599  0.33240157    -0.14700
C479        C  0.15955726  0.12197957  0.32157706     0.35900
C480        C  0.12653821  0.09069699  0.32092984    -0.26100
C481        C  0.09506043  0.09073444  0.33089082    -0.15300
C482        C  0.09711874  0.12292828  0.34230781     0.37000
N483        N  0.06600811  0.12407863  0.35437258    -0.89600
H484        H  0.13098776  0.17857746  0.35156661     0.18100
H485        H  0.12560865  0.06627336  0.31220846     0.18100
N486        N  0.19086180  0.12082340  0.31046457    -0.88600
H487        H  0.06335880  0.14169780  0.33499680     0.35500
H488        H  0.06984053  0.13407040  0.38429708     0.40600
H489        H  0.18747063  0.11065707  0.28067028     0.40200
H490        H  0.19326149  0.10333156  0.33032683     0.35100
C491        C  0.00624826  0.48033070  0.14107882    -0.26700
C492        C  0.99980561  0.00218760  0.12035045    -0.14700
C493        C  0.49077904  0.02396046  0.14682377     0.35900
C494        C  0.49100168  0.02340043  0.18973071    -0.26100
C495        C  0.99975377  0.99870680  0.20702334    -0.15300
C496        C  0.00649357  0.47865365  0.18400359     0.37000
N497        N  0.01089001  0.45160891  0.20329194    -0.89600
H498        H  0.00984916  0.46130842  0.12331699     0.18100
H499        H  0.48599591  0.04200757  0.20637430     0.18100
N500        N  0.48248453  0.04821401  0.12692436    -0.88600
H501        H  0.03506671  0.45434890  0.19355685     0.35500
H502        H  0.99057461  0.42709137  0.19307391     0.40600
H503        H  0.46090176  0.03397804  0.10730673     0.40200
H504        H  0.50435677  0.06604015  0.10959930     0.35100
O505        O  0.47225252  0.94462828  0.33642280    -0.72100
O506        O  0.06012479  0.53114896  0.33002689    -0.72300
O507        O  0.01845010  0.98510990  0.38809105    -0.72200
O508        O  0.01506423  0.98371466  0.27159601    -0.72200
O509        O  0.48750902  0.51411128  0.27429497    -0.72200
O510        O  0.48642056  0.51180265  0.39036477    -0.72200
O511        O  0.03119808  0.55970102  0.33228660    -0.72100
O512        O  0.44234293  0.97221330  0.33413398    -0.72300
V513        V  0.01620270  0.98489350  0.32987586     1.35200
V514        V  0.48758386  0.51235471  0.33233371     1.35200
C515        C  0.44255986  0.94334326  0.33523204     0.77100
C516        C  0.06058703  0.56033196  0.33165252     0.77200
C517        C  0.00425742  0.99941695  0.40862365     0.77100
C518        C  0.00166447  0.50236631  0.25306620     0.77000
O519        O  0.06130544  0.78258834  0.33457348    -0.72100
O520        O  0.47381311  0.69325278  0.33642249    -0.72300
O521        O  0.01658745  0.73778097  0.27803200    -0.72200
O522        O  0.01896688  0.74073880  0.39421891    -0.72200
O523        O  0.48645045  0.76495807  0.39152397    -0.72200
O524        O  0.48998448  0.76547211  0.27535111    -0.72200
O525        O  0.44479017  0.72168178  0.33231364    -0.72100
O526        O  0.03260897  0.81136206  0.33673356    -0.72300
V527        V  0.01721388  0.73982331  0.33611201     1.35200
V528        V  0.48889619  0.76470129  0.33349588     1.35200
C529        C  0.06196822  0.81185799  0.33558780     0.77100
C530        C  0.44444861  0.69255317  0.33438868     0.77200
C531        C  0.00269539  0.75244918  0.25781419     0.77100
C532        C  0.00364623  0.75426536  0.41397860     0.77000
O533        O  0.28138147  0.56026761  0.34047181    -0.72100
O534        O  0.19455541  0.97524340  0.33196632    -0.72300
O535        O  0.23613990  0.51541771  0.39644624    -0.72200
O536        O  0.23920792  0.51866498  0.28019029    -0.72200
O537        O  0.26553378  0.98857757  0.27426154    -0.72200
O538        O  0.26846310  0.99172599  0.39063893    -0.72200
O539        O  0.22345912  0.94668137  0.33445033    -0.72100
O540        O  0.30996622  0.53141313  0.33643183    -0.72300
V541        V  0.23824912  0.51653232  0.33834039     1.35200
V542        V  0.26643799  0.99070782  0.33246874     1.35200
C543        C  0.31064497  0.56070456  0.33861068     0.77100
C544        C  0.19404388  0.94606656  0.33369731     0.77200
C545        C  0.25189761  0.50239384  0.41620535     0.77100
C546        C  0.25193015  0.50269508  0.26019589     0.77000
O547        O  0.22414765  0.69330376  0.33502974    -0.72100
O548        O  0.31003371  0.78135769  0.33325967    -0.72300
O549        O  0.26689435  0.73885132  0.39230831    -0.72200
O550        O  0.26714636  0.73559543  0.27597433    -0.72200
O551        O  0.23986758  0.76579475  0.27392483    -0.72200
O552        O  0.23397486  0.76334702  0.39021955    -0.72200
O553        O  0.27993732  0.80876455  0.33479127    -0.72100
O554        O  0.19434014  0.72083845  0.32955682    -0.72300
V555        V  0.26652955  0.73783580  0.33410939     1.35200
V556        V  0.23765554  0.76422144  0.33212247     1.35200
C557        C  0.19452913  0.69203362  0.33214812     0.77100
C558        C  0.30970298  0.81017414  0.33446390     0.77200
C559        C  0.24965824  0.75084812  0.41107289     0.77100
C560        C  0.25363286  0.75023351  0.25503226     0.77000
O561        O  0.46808587  0.52798702  0.99682062    -0.72100
O562        O  0.05844107  0.53285725  0.99946252    -0.72300
O563        O  0.01649161  0.53233933  0.93895887    -0.72200
O564        O  0.01413440  0.53439497  0.05540178    -0.72200
O565        O  0.48487710  0.97105300  0.05974625    -0.72200
O566        O  0.48281655  0.97028133  0.94337206    -0.72200
O567        O  0.03089696  0.97511831  0.99666829    -0.72100
O568        O  0.44159815  0.97290182  0.00261086    -0.72300
V569        V  0.01473657  0.53233255  0.99720532     1.35200
V570        V  0.48452424  0.97177532  0.00153946     1.35200
C571        C  0.44225575  0.00215571  0.00043393     0.77100
C572        C  0.05983038  0.00410955  0.99757891     0.77200
C573        C  0.00037560  0.50332538  0.91974601     0.77100
C574        C  0.00099672  0.50602558  0.07575335     0.77000
O575        O  0.01752580  0.77681953  0.94429839    -0.72100
O576        O  0.01368871  0.77802253  0.06059756    -0.72300
O577        O  0.05897095  0.77694900  0.00507878    -0.74600
O578        O  0.47216055  0.77712907  0.99945569    -0.72200
O579        O  0.44279128  0.71993033  0.00385437    -0.72200
O580        O  0.02990164  0.71967890  0.00337043    -0.72200
O581        O  0.48835972  0.71974964  0.05944096    -0.72100
O582        O  0.48321767  0.71827665  0.94317955    -0.72300
V583        V  0.01514922  0.77634141  0.00247486     1.35200
V584        V  0.48644858  0.72014202  0.00127110     1.35200
C585        C  0.00236323  0.74796556  0.92465621     0.77100
C586        C  0.99970844  0.74948264  0.08065296     0.77200
C587        C  0.05928734  0.74814022  0.00441771     0.77100
C588        C  0.44271532  0.74882195  0.00168073     0.77000
O589        O  0.27908885  0.97279526  0.99754179    -0.72100
O590        O  0.19233212  0.97286273  0.00044425    -0.72300
O591        O  0.23467797  0.97285252  0.94082696    -0.72200
O592        O  0.23697401  0.97284902  0.05717602    -0.72200
O593        O  0.26043950  0.52572123  0.06278415    -0.72200
O594        O  0.26151781  0.52452099  0.94664711    -0.72200
O595        O  0.21773102  0.52566129  0.00368061    -0.72100
O596        O  0.30395731  0.52417575  0.00572795    -0.72300
V597        V  0.23630460  0.97395441  0.99899545     1.35200
V598        V  0.26034203  0.52392981  0.00472283     1.35200
C599        C  0.30842795  0.00118476  0.99904262     0.77100
C600        C  0.19158285  0.00136799  0.99926778     0.77200
C601        C  0.25017534  0.00149400  0.92097243     0.77100
C602        C  0.25058432  0.00152661  0.07709039     0.77000
O603        O  0.30934995  0.77728994  0.99887119    -0.72100
O604        O  0.22284893  0.77853879  0.99951754    -0.72300
O605        O  0.26635631  0.77831927  0.05733578    -0.72200
O606        O  0.26568778  0.77759801  0.94102896    -0.72200
O607        O  0.23447002  0.72030382  0.94140264    -0.72200
O608        O  0.23891159  0.72097666  0.05778346    -0.72200
O609        O  0.19365958  0.72130244  0.00220551    -0.72100
O610        O  0.27998855  0.72001621  0.99696999    -0.72300
V611        V  0.26553419  0.77683672  0.99919009     1.35200
V612        V  0.23736049  0.72174081  0.99956694     1.35200
C613        C  0.30947850  0.74839981  0.99747526     0.77100
C614        C  0.19343276  0.75014140  0.00135326     0.77200
C615        C  0.25270774  0.74980836  0.07744579     0.77100
C616        C  0.24943264  0.74887162  0.92136669     0.77000
O617        O  0.03196260  0.97205955  0.66713283    -0.72100
O618        O  0.03200653  0.55895026  0.66477612    -0.72300
O619        O  0.03109484  0.51502227  0.72248510    -0.72200
O620        O  0.03092007  0.51487858  0.60619791    -0.72200
O621        O  0.46987732  0.98736316  0.60994678    -0.72200
O622        O  0.47044324  0.98567785  0.72637483    -0.72200
O623        O  0.46920351  0.52906755  0.66510729    -0.72100
O624        O  0.46873673  0.94234994  0.66698323    -0.72300
V625        V  0.02984405  0.51434119  0.66438000     1.35200
V626        V  0.47123021  0.98699936  0.66814910     1.35200
C627        C  0.00295110  0.94306383  0.66555953     0.77100
C628        C  0.00357419  0.56021520  0.66623808     0.77200
C629        C  0.00239015  0.50096674  0.74249031     0.77100
C630        C  0.00214461  0.50218265  0.58640622     0.77000
O631        O  0.46726315  0.77822248  0.66936678    -0.72100
O632        O  0.46611273  0.69047068  0.66518659    -0.72300
O633        O  0.46693328  0.73315341  0.72581929    -0.72200
O634        O  0.46653573  0.73581303  0.60906295    -0.72200
O635        O  0.03094750  0.76432913  0.61075586    -0.72200
O636        O  0.03261646  0.76695485  0.72709276    -0.72200
O637        O  0.03133253  0.72179058  0.67004416    -0.72100
O638        O  0.03214174  0.80917008  0.66785946    -0.72300
V639        V  0.46775376  0.73488509  0.66739262     1.35200
V640        V  0.03066117  0.76499903  0.66894548     1.35200
C641        C  0.00364660  0.81023421  0.66998624     0.77100
C642        C  0.00240467  0.69275008  0.66874282     0.77200
C643        C  0.49594732  0.74773380  0.74542099     0.77100
C644        C  0.49540705  0.74979922  0.58926359     0.77000
O645        O  0.27251613  0.51274514  0.73032151    -0.72100
O646        O  0.27503609  0.51374409  0.61401689    -0.72300
O647        O  0.27179317  0.55576246  0.67209943    -0.72200
O648        O  0.27594657  0.96953877  0.66685719    -0.72200
O649        O  0.21852820  0.94187815  0.66319175    -0.72200
O650        O  0.21428808  0.52543995  0.67324303    -0.72200
O651        O  0.21957915  0.98790141  0.60755851    -0.72100
O652        O  0.21923890  0.98360522  0.72399344    -0.72300
V653        V  0.27265212  0.51268861  0.67216064     1.35200
V654        V  0.22042811  0.98621353  0.66579955     1.35200
C655        C  0.24805618  0.99880647  0.74382327     0.77100
C656        C  0.24845999  0.00102431  0.58785773     0.77200
C657        C  0.24240790  0.55520219  0.67293155     0.77100
C658        C  0.24691360  0.94059049  0.66506595     0.77000
O659        O  0.21184460  0.73146253  0.72483135    -0.72100
O660        O  0.21161982  0.73126890  0.60801900    -0.72300
O661        O  0.21177593  0.68774560  0.66669927    -0.72200
O662        O  0.21165703  0.77502137  0.66636962    -0.72200
O663        O  0.26917036  0.80341431  0.66527604    -0.72200
O664        O  0.26931006  0.71668868  0.66750876    -0.72200
O665        O  0.26915320  0.75911322  0.60834306    -0.72100
O666        O  0.26943057  0.76113098  0.72429530    -0.72300
V667        V  0.21276847  0.73190573  0.66645821     1.35200
V668        V  0.26808517  0.75947836  0.66633447     1.35200
C669        C  0.24081627  0.74640921  0.74442325     0.77100
C670        C  0.24050630  0.74531003  0.58822387     0.77200
C671        C  0.24071627  0.68737656  0.66734987     0.77100
C672        C  0.24049208  0.80420691  0.66567583     0.77000
C673        C  0.21314979  0.87476579  0.65883459    -0.26700
C674        C  0.24575106  0.90591414  0.66532393    -0.14700
C675        C  0.27630370  0.90312554  0.67243029     0.35900
C676        C  0.27381418  0.86981869  0.67227891    -0.26100
C677        C  0.24128835  0.83869535  0.66559803    -0.15300
C678        C  0.21062944  0.84139574  0.65897381     0.37000
N679        N  0.17688204  0.81048961  0.65194808    -0.89600
H680        H  0.18928759  0.87617014  0.65344985     0.18100
H681        H  0.29766782  0.86843717  0.67783192     0.18100
N682        N  0.30995117  0.93389357  0.68037113    -0.88600
H683        H  0.16744875  0.81308315  0.62338854     0.35500
H684        H  0.15928030  0.80956477  0.67447895     0.40600
H685        H  0.32795453  0.93508597  0.65823053     0.40200
H686        H  0.31882854  0.93090936  0.70911687     0.35100
C687        C  0.27139099  0.61962995  0.65876636    -0.26700
C688        C  0.24135314  0.58871155  0.67246791    -0.14700
C689        C  0.21105285  0.59044233  0.68457095     0.35900
C690        C  0.21122645  0.62268981  0.68224691    -0.26100
C691        C  0.24124801  0.65358804  0.66828664    -0.15300
C692        C  0.27163039  0.65187100  0.65615766     0.37000
N693        N  0.30247990  0.68264748  0.64052064    -0.89600
H694        H  0.29468543  0.61854226  0.64910247     0.18100
H695        H  0.18786019  0.62360356  0.69204521     0.18100
N696        N  0.18029618  0.55978773  0.70008264    -0.88600
H697        H  0.29536099  0.68930920  0.61266593     0.35500
H698        H  0.32267714  0.67703634  0.63378122     0.40600
H699        H  0.15866758  0.55497826  0.68163911     0.40200
H700        H  0.17536565  0.56545884  0.72978330     0.35100
C701        C  0.46490581  0.84194771  0.67333347    -0.26700
C702        C  0.00391416  0.84444651  0.66971370    -0.14700
C703        C  0.03581942  0.87727376  0.67073128     0.35900
C704        C  0.03476047  0.90885105  0.66934069    -0.26100
C705        C  0.00243662  0.90874684  0.66716287    -0.15300
C706        C  0.46419412  0.87376681  0.67317819     0.37000
N707        N  0.43096246  0.87276140  0.67826404    -0.89600
H708        H  0.44012092  0.81736938  0.67695464     0.18100
H709        H  0.05961069  0.93365196  0.66998198     0.18100
N710        N  0.06950040  0.87891393  0.67341017    -0.88600
H711        H  0.41993342  0.86042067  0.70623352     0.35500
H712        H  0.41395586  0.85722768  0.65472491     0.40600
H713        H  0.08234926  0.89307469  0.69991058     0.40200
H714        H  0.08470997  0.89295080  0.64802438     0.35100
C715        C  0.46771520  0.59268231  0.64945845    -0.26700
C716        C  0.00389310  0.59439894  0.66751658    -0.14700
C717        C  0.03469493  0.62656099  0.67744746     0.35900
C718        C  0.03359382  0.65818476  0.67766391    -0.26100
C719        C  0.00218832  0.65857016  0.66844524    -0.15300
C720        C  0.46615619  0.62412653  0.64856451     0.37000
N721        N  0.43561368  0.62410636  0.63160320    -0.89600
H722        H  0.44553269  0.56854573  0.63765645     0.18100
H723        H  0.05752233  0.68255523  0.68542395     0.18100
N724        N  0.06704356  0.62731222  0.68803861    -0.88600
H725        H  0.41662475  0.59868061  0.62217618     0.35500
H726        H  0.44384368  0.63971104  0.60513580     0.40600
H727        H  0.07436101  0.63787037  0.71761152     0.40200
H728        H  0.08678355  0.64431458  0.66767563     0.35100
C729        C  0.21798053  0.72088887  0.85634961    -0.26700
C730        C  0.24741615  0.74862715  0.87612464    -0.14700
C731        C  0.27424678  0.77574149  0.85236540     0.35900
C732        C  0.27129444  0.77458670  0.80952624    -0.26100
C733        C  0.24182806  0.74695506  0.78971667    -0.15300
C734        C  0.21486760  0.71992802  0.81344021     0.37000
N735        N  0.18478583  0.69100059  0.79415155    -0.89600
H736        H  0.19711400  0.69992597  0.87426909     0.18100
H737        H  0.29226937  0.79551487  0.79167370     0.18100
N738        N  0.30499543  0.80404648  0.87146046    -0.88600
H739        H  0.16189108  0.69026733  0.80540652     0.35500
H740        H  0.18404863  0.66759517  0.80284773     0.40600
H741        H  0.30654997  0.82785730  0.86290307     0.40200
H742        H  0.32740300  0.80393751  0.85993727     0.35100
C743        C  0.27358875  0.52029300  0.81623399    -0.26700
C744        C  0.24836938  0.99896539  0.78898981    -0.14700
C745        C  0.22360541  0.96958937  0.81174818     0.35900
C746        C  0.22476635  0.97091060  0.85473654    -0.26100
C747        C  0.25017611  0.00126629  0.87556918    -0.15300
C748        C  0.27499686  0.52075982  0.85926837     0.37000
N749        N  0.30668158  0.54621102  0.88018429    -0.89600
H750        H  0.29650236  0.53956386  0.79919030     0.18100
H751        H  0.20550629  0.94807033  0.87182738     0.18100
N752        N  0.19785537  0.93803926  0.79135374    -0.88600
H753        H  0.32592926  0.56293248  0.85916948     0.35500
H754        H  0.31717863  0.53234607  0.89529789     0.40600
H755        H  0.17263694  0.93261609  0.80078216     0.40200
H756        H  0.20147985  0.91721985  0.80101756     0.35100
C757        C  0.37759091  0.71798416  0.99081808    -0.26700
C758        C  0.40892109  0.74921745  0.00086189    -0.14700
C759        C  0.40740297  0.78017803  0.00906061     0.35900
C760        C  0.37481209  0.77931222  0.00716245    -0.26100
C761        C  0.34337709  0.74805190  0.99728617    -0.15300
C762        C  0.34490978  0.71706878  0.98850022     0.37000
N763        N  0.31352508  0.68487162  0.97686336    -0.89600
H764        H  0.37864853  0.69422584  0.98393644     0.18100
H765        H  0.37415830  0.80327688  0.01410600     0.18100
N766        N  0.43868149  0.81243966  0.02015050    -0.88600
H767        H  0.31918233  0.66443581  0.97261426     0.35500
H768        H  0.30536425  0.68917046  0.94830000     0.40600
H769        H  0.43455633  0.82022835  0.04906878     0.40200
H770        H  0.44208061  0.83184753  0.99895290     0.35100
C771        C  0.12755135  0.71782902  0.00316093    -0.26700
C772        C  0.15945660  0.75028000  0.00242905    -0.14700
C773        C  0.15809995  0.78193834  0.00269461     0.35900
C774        C  0.12521149  0.78050579  0.00369729    -0.26100
C775        C  0.09330313  0.74805236  0.00430829    -0.15300
C776        C  0.09466687  0.71639040  0.00405256     0.37000
N777        N  0.06287252  0.68262470  0.00461739    -0.89600
H778        H  0.12793812  0.69319392  0.00292466     0.18100
H779        H  0.12481162  0.80513342  0.00376961     0.18100
N780        N  0.18990301  0.81568601  0.00190155    -0.88600
H781        H  0.06361977  0.66882992  0.03045887     0.35500
H782        H  0.06272906  0.66857570  0.97849472     0.40600
H783        H  0.19016554  0.82983578  0.02797950     0.40200
H784        H  0.18905487  0.82938417  0.97601652     0.35100
C785        C  0.02765579  0.77872378  0.85859824    -0.26700
C786        C  0.00300649  0.74775472  0.87911913    -0.14700
C787        C  0.46561734  0.72405368  0.85569964     0.35900
C788        C  0.46576911  0.72526938  0.81277586    -0.26100
C789        C  0.49670481  0.74820449  0.79095821    -0.15300
C790        C  0.02870955  0.78064259  0.81553163     0.37000
N791        N  0.05377580  0.81273446  0.79521030    -0.89600
H792        H  0.04615103  0.80166969  0.87618997     0.18100
H793        H  0.44150553  0.70788099  0.79640793     0.18100
N794        N  0.43292321  0.70077770  0.87605876    -0.88600
H795        H  0.06984973  0.83194675  0.81662590     0.35500
H796        H  0.03938956  0.82261189  0.77993245     0.40600
H797        H  0.42691240  0.71560548  0.89643503     0.40200
H798        H  0.43610651  0.68208439  0.89265132     0.35100
C799        C  0.37671307  0.97083946  0.00258353    -0.26700
C800        C  0.40864651  0.00312404  0.00011237    -0.14700
C801        C  0.40257529  0.52967094  0.00939179     0.35900
C802        C  0.36945426  0.52738601  0.01028369    -0.26100
C803        C  0.34238590  0.00090311  0.99940697    -0.15300
C804        C  0.34392437  0.96926943  0.00230416     0.37000
N805        N  0.31294657  0.93501281  0.00537736    -0.89600
H806        H  0.37698199  0.94620153  0.00480745     0.18100
H807        H  0.36846503  0.55135154  0.01601687     0.18100
N808        N  0.43305638  0.56358470  0.01702226    -0.88600
H809        H  0.29752958  0.93013423  0.97895984     0.35500
H810        H  0.29851183  0.93429383  0.03140157     0.40600
H811        H  0.44919337  0.57164369  0.99092421     0.40200
H812        H  0.44700841  0.56160877  0.04204088     0.35100
C813        C  0.09383785  0.97343604  0.00991804    -0.26700
C814        C  0.09400703  0.00441295  0.99805029    -0.14700
C815        C  0.12607823  0.53414721  0.00465554     0.35900
C816        C  0.15651833  0.53115217  0.00643136    -0.26100
C817        C  0.15753117  0.00139111  0.99905522    -0.15300
C818        C  0.12490011  0.97149540  0.01051962     0.37000
N819        N  0.12220558  0.93891036  0.02355801    -0.89600
H820        H  0.06925974  0.95032884  0.01910166     0.18100
H821        H  0.18197642  0.55518710  0.00888365     0.18100
N822        N  0.13066314  0.56897962  0.00660364    -0.88600
H823        H  0.13907245  0.94387784  0.04860720     0.35500
H824        H  0.12961676  0.92822815  0.99929900     0.40600
H825        H  0.11703806  0.57070697  0.03213732     0.40200
H826        H  0.12060438  0.57377477  0.97972479     0.35100
C827        C  0.52803334  0.51953232  0.85467596    -0.26700
C828        C  0.00044530  0.50247591  0.87446267    -0.14700
C829        C  0.97650505  0.97288541  0.85067676     0.35900
C830        C  0.97760016  0.97389092  0.80770807    -0.26100
C831        C  0.00245106  0.50196587  0.78784934    -0.15300
C832        C  0.52925487  0.52020056  0.81171390     0.37000
N833        N  0.56247838  0.54213600  0.79164577    -0.89600
H834        H  0.55220039  0.53567673  0.87187161     0.18100
H835        H  0.95822263  0.95107327  0.79057984     0.18100
N836        N  0.94949758  0.94203434  0.87090314    -0.88600
H837        H  0.58040613  0.53420349  0.80119972     0.35500
H838        H  0.57209127  0.56819180  0.80135853     0.40600
H839        H  0.95197888  0.92041160  0.86162778     0.40200
H840        H  0.92479910  0.93778581  0.86099834     0.35100
C841        C  0.21558812  0.74258060  0.47540571    -0.26700
C842        C  0.24741931  0.74973733  0.45624441    -0.14700
C843        C  0.27648700  0.75517864  0.48042119     0.35900
C844        C  0.27335665  0.75333614  0.52320127    -0.26100
C845        C  0.24154479  0.74600791  0.54271643    -0.15300
C846        C  0.21221810  0.74052027  0.51844607     0.37000
N847        N  0.17934097  0.73322926  0.53732320    -0.89600
H848        H  0.19317013  0.73826415  0.45668056     0.18100
H849        H  0.29614648  0.75770289  0.54121494     0.18100
N850        N  0.30958903  0.76349232  0.46169558    -0.88600
H851        H  0.16029146  0.72888240  0.51501038     0.35500
H852        H  0.18400312  0.75588469  0.55345599     0.40600
H853        H  0.31603190  0.74440392  0.47074719     0.40200
H854        H  0.32913810  0.78795150  0.47304940     0.35100
C855        C  0.25361340  0.77736527  0.18832249    -0.26700
C856        C  0.25389052  0.74956042  0.20959611    -0.14700
C857        C  0.25314413  0.72144064  0.18693947     0.35900
C858        C  0.25244596  0.72198960  0.14402946    -0.26100
C859        C  0.25279933  0.75011728  0.12282501    -0.15300
C860        C  0.25296449  0.77794251  0.14524887     0.37000
N861        N  0.25173510  0.80630817  0.12433352    -0.89600
H862        H  0.25385080  0.79881356  0.20541569     0.18100
H863        H  0.25198292  0.70034324  0.12711595     0.18100
N864        N  0.25207885  0.69151318  0.20640375    -0.88600
H865        H  0.25239403  0.82477617  0.14534886     0.35500
H866        H  0.22728119  0.79554715  0.10927385     0.40600
H867        H  0.23033847  0.68008130  0.22633817     0.40200
H868        H  0.27543439  0.69999711  0.22315106     0.35100
C869        C  0.22082362  0.49772991  0.48157148    -0.26700
C870        C  0.25257107  0.00476422  0.45590551    -0.14700
C871        C  0.27971908  0.00409038  0.47883487     0.35900
C872        C  0.27787876  0.00304182  0.52179129    -0.26100
C873        C  0.24918864  0.00230496  0.54252983    -0.15300
C874        C  0.21869912  0.49682193  0.52449344     0.37000
N875        N  0.18721060  0.49249131  0.54395775    -0.89600
H876        H  0.19835255  0.49469943  0.46389338     0.18100
H877        H  0.29892989  0.00246857  0.53896921     0.18100
N878        N  0.30956460  0.00513579  0.45874512    -0.88600
H879        H  0.16576837  0.46869180  0.53372585     0.35500
H880        H  0.18316647  0.51306662  0.53437231     0.40600
H881        H  0.31072976  0.98269016  0.46745117     0.40200
H882        H  0.33257366  0.02737161  0.46933855     0.35100
C883        C  0.25005937  0.52723185  0.14886503    -0.26700
C884        C  0.25124155  0.00178567  0.12241022    -0.14700
C885        C  0.25184708  0.97455320  0.14499666     0.35900
C886        C  0.25245683  0.97589532  0.18802550    -0.26100
C887        C  0.25213956  0.00383945  0.20907573    -0.15300
C888        C  0.25118049  0.52925277  0.19182414     0.37000
N889        N  0.25288710  0.55935156  0.21177721    -0.89600
H890        H  0.24993456  0.54834628  0.13153606     0.18100
H891        H  0.25281409  0.95474630  0.20501424     0.18100
N892        N  0.25263212  0.94589330  0.12444094    -0.88600
H893        H  0.23060481  0.56096921  0.20301057     0.35500
H894        H  0.27544467  0.58198791  0.20113479     0.40600
H895        H  0.23067452  0.92229550  0.13416290     0.40200
H896        H  0.27554914  0.94565175  0.13363466     0.35100
C897        C  0.47076905  0.75001578  0.47724272    -0.26700
C898        C  0.00370651  0.75442859  0.45925168    -0.14700
C899        C  0.03271375  0.75727633  0.48163286     0.35900
C900        C  0.03152864  0.75645669  0.52458053    -0.26100
C901        C  0.49625154  0.75075713  0.54393072    -0.15300
C902        C  0.46832376  0.74936269  0.52031485     0.37000
N903        N  0.43791444  0.74776183  0.53995962    -0.89600
H904        H  0.44925573  0.74860720  0.45900916     0.18100
H905        H  0.05403874  0.75851149  0.54127877     0.18100
N906        N  0.06381798  0.76185007  0.46091285    -0.88600
H907        H  0.41967583  0.74641665  0.51809372     0.35500
H908        H  0.44662064  0.77148832  0.55592657     0.40600
H909        H  0.06805811  0.74118919  0.46956300     0.40200
H910        H  0.08546197  0.78554746  0.47104255     0.35100
C911        C  0.37979900  0.65817723  0.34910915    -0.26700
C912        C  0.41051073  0.65857821  0.33500780    -0.14700
C913        C  0.40835808  0.62651986  0.32244233     0.35900
C914        C  0.37561670  0.59490783  0.32453345    -0.26100
C915        C  0.34482344  0.59456622  0.33838100    -0.15300
C916        C  0.34719719  0.62661891  0.35115220     0.37000
N917        N  0.31679869  0.62728701  0.36706769    -0.89600
H918        H  0.38114357  0.68246810  0.35932511     0.18100
H919        H  0.37405335  0.57048702  0.31449950     0.18100
N920        N  0.43916798  0.62615623  0.30692818    -0.88600
H921        H  0.31240678  0.64452622  0.34902056     0.35500
H922        H  0.32267136  0.63750930  0.39690750     0.40600
H923        H  0.44644697  0.64038868  0.27942379     0.40200
H924        H  0.43314782  0.60042237  0.29960867     0.35100
C925        C  0.09553864  0.87767178  0.33961342    -0.26700
C926        C  0.09609077  0.84589652  0.33547087    -0.14700
C927        C  0.12920008  0.84740293  0.33131663     0.35900
C928        C  0.16061391  0.88022504  0.33097075    -0.26100
C929        C  0.16001974  0.91199677  0.33472030    -0.15300
C930        C  0.12696389  0.91048142  0.33943067     0.37000
N931        N  0.12498127  0.94206961  0.34448473    -0.89600
H932        H  0.07052758  0.87721527  0.34319544     0.18100
H933        H  0.18564362  0.88070404  0.32746361     0.18100
N934        N  0.13127848  0.81579741  0.32718634    -0.88600
H935        H  0.11240427  0.94043354  0.37245105     0.35500
H936        H  0.10916984  0.94305170  0.32093118     0.40600
H937        H  0.14692426  0.81512808  0.35115362     0.40200
H938        H  0.14408172  0.81712945  0.29949293     0.35100
C939        C  0.49788516  0.77391380  0.18934572    -0.26700
C940        C  0.00149178  0.75098752  0.21231712    -0.14700
C941        C  0.01008079  0.72842113  0.19001283     0.35900
C942        C  0.00862308  0.72791563  0.14707105    -0.26100
C943        C  0.99917324  0.74978908  0.12573560    -0.15300
C944        C  0.49709678  0.77418525  0.14626578     0.37000
N945        N  0.49059603  0.79928188  0.12504100    -0.89600
H946        H  0.49416149  0.79322518  0.20626441     0.18100
H947        H  0.01562187  0.71078677  0.13025765     0.18100
N948        N  0.02015051  0.70578918  0.21063784    -0.88600
H949        H  0.48767723  0.81590541  0.14589443     0.35500
H950        H  0.46633448  0.78511205  0.10970129     0.40600
H951        H  0.04542390  0.71204747  0.20039693     0.40200
H952        H  0.00238412  0.67969918  0.20209717     0.35100
C953        C  0.97548976  0.50295617  0.47565350    -0.26700
C954        C  0.00527155  0.00027031  0.45404236    -0.14700
C955        C  0.53059834  0.00790891  0.48035054     0.35900
C956        C  0.52927702  0.00704863  0.52332676    -0.26100
C957        C  0.00228409  0.50283478  0.54108334    -0.15300
C958        C  0.97454425  0.50281384  0.51864258     0.37000
N959        N  0.94568611  0.50333025  0.53928466    -0.89600
H960        H  0.95392274  0.50280133  0.45879880     0.18100
H961        H  0.55228370  0.01050526  0.54017648     0.18100
N962        N  0.56236392  0.01422389  0.45973757    -0.88600
H963        H  0.92209404  0.48114397  0.52987243     0.35500
H964        H  0.94497745  0.52585125  0.52982801     0.40600
H965        H  0.56799336  0.99450038  0.46848810     0.40200
H966        H  0.58315571  0.03850029  0.46987020     0.35100
C967        C  0.37521497  0.84528136  0.32502213    -0.26700
C968        C  0.34341339  0.84450994  0.33515792    -0.14700
C969        C  0.34456218  0.87649712  0.34562668     0.35900
C970        C  0.37707662  0.90830050  0.34537419    -0.26100
C971        C  0.40884767  0.90904546  0.33515483    -0.15300
C972        C  0.40770799  0.87706109  0.32479521     0.37000
N973        N  0.43929592  0.87666245  0.31313893    -0.89600
H974        H  0.37494051  0.82109880  0.31666678     0.18100
H975        H  0.37740704  0.93252385  0.35366877     0.18100
N976        N  0.31296753  0.87690964  0.35720704    -0.88600
H977        H  0.43564746  0.86612230  0.28350801     0.35500
H978        H  0.44259005  0.85980069  0.33313314     0.40600
H979        H  0.30970904  0.89377947  0.33719003     0.40200
H980        H  0.31659430  0.88746299  0.38682967     0.35100
C981        C  0.12919772  0.65808237  0.34145171    -0.26700
C982        C  0.16071561  0.65797729  0.33233357    -0.14700
C983        C  0.15918853  0.62555967  0.32378264     0.35900
C984        C  0.12636047  0.59415121  0.32399248    -0.26100
C985        C  0.09471747  0.59423533  0.33274997    -0.15300
C986        C  0.09633801  0.62666892  0.34230508     0.37000
N987        N  0.06484292  0.62774924  0.35333821    -0.89600
H988        H  0.13021169  0.68281108  0.34870220     0.18100
H989        H  0.12570887  0.56958364  0.31678261     0.18100
N990        N  0.19071524  0.62435024  0.31403658    -0.88600
H991        H  0.07059393  0.65376734  0.35822964     0.35500
H992        H  0.05599630  0.61476815  0.38148420     0.40600
H993        H  0.18754684  0.61310277  0.28486260     0.40200
H994        H  0.19323138  0.60775742  0.33521754     0.35100
C995        C  0.00333132  0.97560873  0.14026802    -0.26700
C996        C  0.00167553  0.50620013  0.12101303    -0.14700
C997        C  0.50183911  0.53008780  0.14573023     0.35900
C998        C  0.50173478  0.52825139  0.18855512    -0.26100
C999        C  0.00170773  0.50309217  0.20764091    -0.15300
C1000       C  0.00353273  0.97375332  0.18320634     0.37000
N1001       N  0.00694216  0.94607221  0.20235653    -0.89600
H1002       H  0.00632966  0.95627181  0.12239562     0.18100
H1003       H  0.50341142  0.55009775  0.20626313     0.18100
N1004       N  0.50330058  0.56063107  0.12748589    -0.88600
H1005       H  0.03076203  0.94803545  0.19251410     0.35500
H1006       H  0.98610897  0.92186056  0.19212443     0.40600
H1007       H  0.48137151  0.55245983  0.10818909     0.40200
H1008       H  0.52664435  0.57405779  0.11034695     0.35100
O1009       O  0.97292692  0.44432236  0.33178367    -0.72100
O1010       O  0.55832405  0.03236381  0.33305806    -0.72300
O1011       O  0.51820036  0.48610257  0.38981499    -0.72200
O1012       O  0.51479784  0.48382763  0.27327869    -0.72200
O1013       O  0.98674540  0.01293974  0.27313111    -0.72200
O1014       O  0.98879105  0.01297919  0.38933475    -0.72200
O1015       O  0.52862913  0.06013009  0.33528415    -0.72100
O1016       O  0.94406598  0.47295057  0.33105827    -0.72300
V1017       V  0.51601537  0.48548868  0.33154069     1.35200
V1018       V  0.98830876  0.01229502  0.33126168     1.35200
C1019       C  0.94351666  0.44369533  0.33169452     0.77100
C1020       C  0.55831948  0.06133496  0.33432094     0.77200
C1021       C  0.50240142  0.49896312  0.40998111     0.77100
C1022       C  0.49924794  0.00093400  0.25658805     0.77000
O1023       O  0.56059687  0.28409873  0.33203271    -0.72100
O1024       O  0.97306931  0.19440880  0.33152263    -0.72300
O1025       O  0.51791350  0.23951877  0.27382654    -0.72200
O1026       O  0.51721664  0.24083709  0.38996499    -0.72200
O1027       O  0.98599229  0.26508090  0.39009113    -0.72200
O1028       O  0.98862836  0.26747598  0.27352052    -0.72200
O1029       O  0.94388392  0.22273646  0.33022059    -0.72100
O1030       O  0.53088807  0.31188951  0.33304526    -0.72300
V1031       V  0.51699101  0.24076227  0.33189066     1.35200
V1032       V  0.98793729  0.26581472  0.33184788     1.35200
C1033       C  0.56056420  0.31303598  0.33332328     0.77100
C1034       C  0.94360764  0.19359466  0.33044816     0.77200
C1035       C  0.50395240  0.25385771  0.25313240     0.77100
C1036       C  0.50095105  0.25359299  0.40925573     0.77000
O1037       O  0.78036729  0.06003736  0.33053416    -0.72100
O1038       O  0.69291447  0.47714733  0.33304841    -0.72300
O1039       O  0.73624660  0.01694203  0.38849961    -0.72200
O1040       O  0.73787471  0.01569437  0.27216659    -0.72200
O1041       O  0.76355868  0.48957517  0.27740767    -0.72200
O1042       O  0.76694863  0.49347335  0.39362134    -0.72200
O1043       O  0.72141418  0.44829545  0.33781214    -0.72100
O1044       O  0.80982153  0.03197455  0.32985245    -0.72300
V1045       V  0.73767571  0.01583993  0.33036266     1.35200
V1046       V  0.76464756  0.49206819  0.33551869     1.35200
C1047       C  0.80992879  0.06103396  0.33019311     0.77100
C1048       C  0.69211909  0.44785325  0.33551108     0.77200
C1049       C  0.75201079  0.00440940  0.40913832     0.77100
C1050       C  0.75159752  0.00023164  0.25302990     0.77000
O1051       O  0.72219634  0.19515325  0.33783956    -0.72100
O1052       O  0.80848833  0.28289121  0.33476557    -0.72300
O1053       O  0.76552280  0.24122528  0.39432332    -0.72200
O1054       O  0.76533772  0.23673640  0.27833649    -0.72200
O1055       O  0.73799178  0.26681212  0.27546535    -0.72200
O1056       O  0.73323235  0.26638068  0.39199786    -0.72200
O1057       O  0.77879418  0.31065532  0.33530332    -0.72100
O1058       O  0.69255974  0.22278309  0.33211994    -0.72300
V1059       V  0.76480804  0.23954125  0.33629524     1.35200
V1060       V  0.73621854  0.26617036  0.33377088     1.35200
C1061       C  0.69255880  0.19386300  0.33484133     0.77100
C1062       C  0.80849226  0.31189567  0.33480020     0.77200
C1063       C  0.74902539  0.25404746  0.41298621     0.77100
C1064       C  0.75196653  0.25124319  0.25697560     0.77000
O1065       O  0.97050643  0.03037118  0.99532794    -0.72100
O1066       O  0.55689854  0.02579432  0.00374817    -0.72300
O1067       O  0.51619319  0.02737233  0.94294641    -0.72200
O1068       O  0.51264208  0.02842064  0.05919117    -0.72200
O1069       O  0.98762309  0.47709423  0.05641409    -0.72200
O1070       O  0.98452579  0.47510027  0.94024007    -0.72200
O1071       O  0.52787934  0.47232545  0.99657557    -0.72100
O1072       O  0.94295502  0.47691145  0.99970897    -0.72300
V1073       V  0.51393699  0.02680879  0.00110511     1.35200
V1074       V  0.98664197  0.47727457  0.99833185     1.35200
C1075       C  0.94270970  0.50572087  0.99762320     0.77100
C1076       C  0.55690755  0.50128862  0.99785414     0.77200
C1077       C  0.49929112  0.99869150  0.92327802     0.77100
C1078       C  0.49828442  0.99991182  0.07927702     0.77000
O1079       O  0.51821067  0.27422971  0.93893267    -0.72100
O1080       O  0.51427266  0.27749687  0.05500376    -0.72300
O1081       O  0.55954974  0.27540295  0.00053252    -0.74600
O1082       O  0.97316035  0.27670057  0.99395012    -0.72200
O1083       O  0.94419791  0.21965286  0.00013551    -0.72200
O1084       O  0.53057416  0.21814250  0.99829881    -0.72200
O1085       O  0.98880952  0.22104248  0.05779852    -0.72100
O1086       O  0.98634655  0.21756280  0.94141826    -0.72300
V1087       V  0.51576325  0.27474970  0.99699559     1.35200
V1088       V  0.98810703  0.22036483  0.99961172     1.35200
C1089       C  0.50178639  0.24515441  0.91995434     0.77100
C1090       C  0.50129258  0.24940072  0.07582120     0.77200
C1091       C  0.55993276  0.24662639  0.00006591     0.77100
C1092       C  0.94382670  0.24831417  0.99669118     0.77000
O1093       O  0.77826933  0.47304013  0.00053397    -0.72100
O1094       O  0.69090433  0.47188066  0.00362626    -0.72300
O1095       O  0.73310766  0.47207578  0.94392423    -0.72200
O1096       O  0.73614185  0.47307938  0.06039206    -0.72200
O1097       O  0.75976425  0.02087867  0.05566009    -0.72200
O1098       O  0.75800284  0.02027167  0.93977491    -0.72200
O1099       O  0.71478493  0.01930088  0.99896038    -0.72100
O1100       O  0.80288163  0.02144785  0.99662653    -0.72300
V1101       V  0.73515646  0.47362593  0.00214904     1.35200
V1102       V  0.75829502  0.01932498  0.99772074     1.35200
C1103       C  0.80741654  0.50167538  0.00120494     0.77100
C1104       C  0.68966069  0.50009476  0.00183880     0.77200
C1105       C  0.74813232  0.50066090  0.92391863     0.77100
C1106       C  0.74958736  0.50191679  0.08002186     0.77000
O1107       O  0.81031469  0.27624866  0.00172426    -0.72100
O1108       O  0.72383166  0.27748904  0.99987877    -0.72300
O1109       O  0.76671906  0.27802451  0.05894894    -0.72200
O1110       O  0.76752366  0.27596690  0.94276116    -0.72200
O1111       O  0.73558234  0.21869959  0.94382414    -0.72200
O1112       O  0.73991771  0.22069667  0.06028719    -0.72200
O1113       O  0.69465441  0.22035332  0.00434626    -0.72100
O1114       O  0.78092579  0.21893674  0.99989944    -0.72300
V1115       V  0.76655056  0.27583559  0.00086172     1.35200
V1116       V  0.73834914  0.22074686  0.00205279     1.35200
C1117       C  0.81038932  0.24733041  0.00055261     0.77100
C1118       C  0.69441206  0.24915841  0.00255451     0.77200
C1119       C  0.75327500  0.24974964  0.07946828     0.77100
C1120       C  0.75132172  0.24706358  0.92346771     0.77000
O1121       O  0.52645415  0.47024106  0.66650472    -0.72100
O1122       O  0.52888735  0.05790886  0.66686308    -0.72300
O1123       O  0.52803715  0.01467073  0.72581785    -0.72200
O1124       O  0.52733791  0.01304507  0.60956844    -0.72200
O1125       O  0.97339179  0.48871698  0.60634542    -0.72200
O1126       O  0.97351721  0.48624364  0.72272811    -0.72200
O1127       O  0.97592713  0.03172986  0.66458180    -0.72100
O1128       O  0.97230790  0.44332717  0.66276595    -0.72300
V1129       V  0.52651912  0.01323554  0.66770294     1.35200
V1130       V  0.97453675  0.48790113  0.66451667     1.35200
C1131       C  0.49758220  0.44110245  0.66598602     0.77100
C1132       C  0.50054908  0.05935260  0.66797439     0.77200
C1133       C  0.49940250  0.00029822  0.74596147     0.77100
C1134       C  0.49854388  0.00056781  0.58984567     0.77000
O1135       O  0.97234218  0.27970196  0.66713943    -0.72100
O1136       O  0.97220987  0.19251413  0.66421563    -0.72300
O1137       O  0.97315627  0.23525734  0.72392735    -0.72200
O1138       O  0.97110673  0.23656969  0.60759899    -0.72200
O1139       O  0.52665675  0.26475005  0.60575505    -0.72200
O1140       O  0.52913665  0.26365754  0.72184385    -0.72200
O1141       O  0.52754875  0.22061108  0.66220398    -0.72100
O1142       O  0.52818149  0.30787200  0.66538528    -0.72300
V1143       V  0.97329583  0.23656977  0.66572560     1.35200
V1144       V  0.52674713  0.26368730  0.66381470     1.35200
C1145       C  0.49959321  0.30882387  0.66656267     0.77100
C1146       C  0.49868850  0.19150703  0.66269895     0.77200
C1147       C  0.00229810  0.24970282  0.74312755     0.77100
C1148       C  0.99954090  0.25048882  0.58706854     0.77000
O1149       O  0.77165015  0.01169956  0.72349202    -0.72100
O1150       O  0.77488390  0.01458346  0.60723619    -0.72300
O1151       O  0.77238174  0.05619366  0.66640634    -0.72200
O1152       O  0.77416852  0.47000338  0.66910995    -0.72200
O1153       O  0.71668375  0.44102493  0.66750936    -0.72200
O1154       O  0.71485906  0.02675279  0.66681854    -0.72200
O1155       O  0.71667504  0.48510408  0.61006268    -0.72100
O1156       O  0.71574443  0.48352950  0.72653729    -0.72300
V1157       V  0.77214576  0.01256410  0.66537444     1.35200
V1158       V  0.71729625  0.48481984  0.66828446     1.35200
C1159       C  0.74440959  0.49847319  0.74666501     0.77100
C1160       C  0.74559903  0.49965228  0.59042246     0.77200
C1161       C  0.74330299  0.05624200  0.66711123     0.77100
C1162       C  0.74559090  0.44064576  0.66821172     0.77000
O1163       O  0.71585480  0.23241829  0.72689229    -0.72100
O1164       O  0.71471571  0.23493318  0.61030460    -0.72300
O1165       O  0.71566728  0.19037508  0.66677158    -0.72200
O1166       O  0.71478717  0.27692448  0.67049829    -0.72200
O1167       O  0.77222898  0.30588530  0.66752694    -0.72200
O1168       O  0.77316955  0.21934846  0.66852424    -0.72200
O1169       O  0.77224760  0.26211817  0.60993571    -0.72100
O1170       O  0.77334568  0.26324643  0.72605301    -0.72300
V1171       V  0.71633284  0.23420816  0.66860678     1.35200
V1172       V  0.77162247  0.26207996  0.66799836     1.35200
C1173       C  0.74487313  0.24740649  0.74637975     0.77100
C1174       C  0.74342069  0.24906350  0.59020104     0.77200
C1175       C  0.74457682  0.19000554  0.66788608     0.77100
C1176       C  0.74333177  0.30627023  0.66899634     0.77000
C1177       C  0.71306026  0.37473975  0.66996933    -0.26700
C1178       C  0.74560900  0.40655940  0.66813311    -0.14700
C1179       C  0.77728340  0.40500880  0.66627563     0.35900
C1180       C  0.77580183  0.37215047  0.66667822    -0.26100
C1181       C  0.74326949  0.34033545  0.66874853    -0.15300
C1182       C  0.71156935  0.34187214  0.67021615     0.37000
N1183       N  0.67768346  0.31025085  0.67191213    -0.89600
H1184       H  0.68838169  0.37519510  0.67130383     0.18100
H1185       H  0.80048051  0.37170193  0.66526435     0.18100
N1186       N  0.81112711  0.43660822  0.66373962    -0.88600
H1187       H  0.66281511  0.31001188  0.64656225     0.35500
H1188       H  0.66464788  0.31117200  0.69849039     0.40600
H1189       H  0.82370353  0.43538590  0.63689516     0.40200
H1190       H  0.82642694  0.43712952  0.68876919     0.35100
C1191       C  0.77431075  0.12152171  0.67747015    -0.26700
C1192       C  0.74288345  0.09008225  0.66804873    -0.14700
C1193       C  0.71197181  0.09177501  0.65911490     0.35900
C1194       C  0.71314396  0.12449808  0.65947519    -0.26100
C1195       C  0.74467136  0.15599222  0.66843121    -0.15300
C1196       C  0.77546356  0.15423459  0.67793192     0.37000
N1197       N  0.80792780  0.18543504  0.68865828    -0.89600
H1198       H  0.79826308  0.12081909  0.68480676     0.18100
H1199       H  0.68917718  0.12517914  0.65216738     0.18100
N1200       N  0.67940937  0.06051596  0.64883459    -0.88600
H1201       H  0.82754212  0.18809418  0.66800530     0.35500
H1202       H  0.81535430  0.18189329  0.71802345     0.40600
H1203       H  0.67166462  0.06390393  0.61958697     0.40200
H1204       H  0.66001397  0.05795064  0.66977942     0.35100
C1205       C  0.96917876  0.34301306  0.66211522    -0.26700
C1206       C  0.49967527  0.34296955  0.66715950    -0.14700
C1207       C  0.53143939  0.37593973  0.66631948     0.35900
C1208       C  0.53003840  0.40737535  0.66604748    -0.26100
C1209       C  0.49751549  0.40697611  0.66669440    -0.15300
C1210       C  0.96817576  0.37468373  0.66096878     0.37000
N1211       N  0.93462478  0.37318025  0.65711734    -0.89600
H1212       H  0.94441201  0.31821179  0.66002222     0.18100
H1213       H  0.55476427  0.43229040  0.66519269     0.18100
N1214       N  0.56531459  0.37787142  0.66566356    -0.88600
H1215       H  0.91868827  0.35868848  0.68185596     0.35500
H1216       H  0.92251435  0.35950682  0.63009369     0.40600
H1217       H  0.57972444  0.39240158  0.69127943     0.40200
H1218       H  0.57885328  0.39166868  0.63931252     0.35100
C1219       C  0.97233065  0.09404818  0.66916298    -0.26700
C1220       C  0.50091575  0.09360415  0.66694579    -0.14700
C1221       C  0.53245430  0.12650681  0.67147375     0.35900
C1222       C  0.53097326  0.15791103  0.66906382    -0.26100
C1223       C  0.49873511  0.15744138  0.66277902    -0.15300
C1224       C  0.97048825  0.12520269  0.66979334     0.37000
N1225       N  0.93716574  0.12319274  0.67813070    -0.89600
H1226       H  0.94827357  0.06922160  0.67489826     0.18100
H1227       H  0.55521647  0.18295998  0.67293989     0.18100
N1228       N  0.56583513  0.12811997  0.67894226    -0.88600
H1229       H  0.92821378  0.11123049  0.70678132     0.35500
H1230       H  0.91894199  0.10690679  0.65592970     0.40600
H1231       H  0.56445710  0.11743115  0.70804975     0.40200
H1232       H  0.58649592  0.15433568  0.68017810     0.35100
C1233       C  0.71967126  0.22125474  0.85799991    -0.26700
C1234       C  0.75035051  0.24659394  0.87824964    -0.14700
C1235       C  0.77935147  0.27161749  0.85504484     0.35900
C1236       C  0.77695970  0.27135895  0.81216002    -0.26100
C1237       C  0.74595118  0.24656864  0.79176017    -0.15300
C1238       C  0.71713132  0.22112110  0.81506256     0.37000
N1239       N  0.68543152  0.19477554  0.79538649    -0.89600
H1240       H  0.69726825  0.20180698  0.87560587     0.18100
H1241       H  0.79951909  0.29086495  0.79481583     0.18100
N1242       N  0.81158916  0.29684535  0.87484167    -0.88600
H1243       H  0.66411835  0.19706214  0.80662346     0.35500
H1244       H  0.68142431  0.16993144  0.80374875     0.40600
H1245       H  0.81688150  0.32215500  0.86658894     0.40200
H1246       H  0.83218452  0.29336455  0.86358947     0.35100
C1247       C  0.76925182  0.02142489  0.80941023    -0.26700
C1248       C  0.74456742  0.49879406  0.79208126    -0.14700
C1249       C  0.71569948  0.47332765  0.81523442     0.35900
C1250       C  0.71764100  0.47416782  0.85820635    -0.26100
C1251       C  0.74761774  0.50042502  0.87867217    -0.15300
C1252       C  0.77049420  0.02127609  0.85240904     0.37000
N1253       N  0.79928251  0.05023228  0.87377490    -0.89600
H1254       H  0.78981903  0.04371475  0.79275818     0.18100
H1255       H  0.69533008  0.45442395  0.87567760     0.18100
N1256       N  0.68456284  0.44624547  0.79537766    -0.88600
H1257       H  0.81636883  0.06958788  0.85315270     0.35500
H1258       H  0.81412997  0.04043883  0.88813849     0.40600
H1259       H  0.66279444  0.44819731  0.80563066     0.40200
H1260       H  0.68092939  0.42173545  0.80463716     0.35100
C1261       C  0.87858387  0.21730060  0.00713543    -0.26700
C1262       C  0.90986877  0.24843708  0.99665076    -0.14700
C1263       C  0.90807832  0.27907406  0.98721102     0.35900
C1264       C  0.87540990  0.27806783  0.98884441    -0.26100
C1265       C  0.84418905  0.24698338  0.99950994    -0.15300
C1266       C  0.84592466  0.21631334  0.00877020     0.37000
N1267       N  0.81482302  0.18425778  0.02069518    -0.89600
H1268       H  0.87939587  0.19355084  0.01473008     0.18100
H1269       H  0.87453591  0.30179971  0.98131758     0.18100
N1270       N  0.93917798  0.31123924  0.97556510    -0.88600
H1271       H  0.81920533  0.17724914  0.04988630     0.35500
H1272       H  0.81139599  0.16436048  0.00012835     0.40600
H1273       H  0.94245742  0.33101236  0.99623571     0.40200
H1274       H  0.93490466  0.31836387  0.94638161     0.35100
C1275       C  0.62853249  0.21675473  0.00241663    -0.26700
C1276       C  0.66038156  0.24928095  0.00324119    -0.14700
C1277       C  0.65892827  0.28095136  0.00420030     0.35900
C1278       C  0.62583139  0.27921820  0.00288118    -0.26100
C1279       C  0.59402602  0.24667510  0.00152702    -0.15300
C1280       C  0.59556588  0.21513085  0.00174138     0.37000
N1281       N  0.56386049  0.18128995  0.00123633    -0.89600
H1282       H  0.62903534  0.19217906  0.00205004     0.18100
H1283       H  0.62498366  0.30360569  0.00319560     0.18100
N1284       N  0.69083736  0.31477050  0.00661439    -0.88600
H1285       H  0.56386016  0.16736009  0.02732558     0.35500
H1286       H  0.56461035  0.16744871  0.97536000     0.40600
H1287       H  0.70209261  0.31648428  0.03549318     0.40200
H1288       H  0.68503815  0.33530349  0.00535514     0.35100
C1289       C  0.53194555  0.26920990  0.85370218    -0.26700
C1290       C  0.50140909  0.24452481  0.87467483    -0.14700
C1291       C  0.97436698  0.21795049  0.85189067     0.35900
C1292       C  0.97490196  0.22030596  0.80906857    -0.26100
C1293       C  0.00294006  0.24871441  0.78844672    -0.15300
C1294       C  0.53259930  0.27138955  0.81068059     0.37000
N1295       N  0.56422391  0.29731983  0.79015559    -0.89600
H1296       H  0.55541321  0.28707912  0.87105537     0.18100
H1297       H  0.95326759  0.19951221  0.79173515     0.18100
N1298       N  0.94466317  0.18832148  0.87069493    -0.88600
H1299       H  0.58462294  0.31141452  0.81125567     0.35500
H1300       H  0.55852003  0.31563238  0.77661158     0.40600
H1301       H  0.93254687  0.19762217  0.89106144     0.40200
H1302       H  0.95373560  0.17370576  0.88685521     0.35100
C1303       C  0.87711899  0.47315222  0.99507547    -0.26700
C1304       C  0.90864834  0.50575640  0.99818436    -0.14700
C1305       C  0.90337451  0.03050316  0.98898397     0.35900
C1306       C  0.86971156  0.02715422  0.98884224    -0.26100
C1307       C  0.84169952  0.50201684  0.00032429    -0.15300
C1308       C  0.84396951  0.47083425  0.99610188     0.37000
N1309       N  0.81340006  0.43632462  0.99260002    -0.89600
H1310       H  0.87803470  0.44890568  0.99171926     0.18100
H1311       H  0.86779994  0.05069471  0.98384678     0.18100
N1312       N  0.93321191  0.06501451  0.98232339    -0.88600
H1313       H  0.79881463  0.43556434  0.96674730     0.35500
H1314       H  0.79793758  0.43096436  0.01908042     0.40600
H1315       H  0.94712999  0.06426634  0.95650483     0.40200
H1316       H  0.94963103  0.07251813  0.00817411     0.35100
C1317       C  0.59073896  0.46944467  0.00077548    -0.26700
C1318       C  0.59127168  0.50181370  0.99831848    -0.14700
C1319       C  0.62126909  0.02225125  0.02069466     0.35900
C1320       C  0.65189197  0.01953992  0.01976951    -0.26100
C1321       C  0.65528466  0.49955981  0.00077813    -0.15300
C1322       C  0.62199763  0.46786292  0.00198693     0.37000
N1323       N  0.61866028  0.43356215  0.00443212    -0.89600
H1324       H  0.56570111  0.44484599  0.00197201     0.18100
H1325       H  0.67603115  0.04077665  0.03297916     0.18100
N1326       N  0.62341962  0.05276494  0.04007528    -0.88600
H1327       H  0.63097390  0.43203538  0.03128910     0.35500
H1328       H  0.63074077  0.42966525  0.97873539     0.40600
H1329       H  0.60418775  0.04448553  0.06314590     0.40200
H1330       H  0.61877315  0.06745618  0.01817761     0.35100
C1331       C  0.02731235  0.03233176  0.85244415    -0.26700
C1332       C  0.49890746  0.99858927  0.87793708    -0.14700
C1333       C  0.46509537  0.47681751  0.85310432     0.35900
C1334       C  0.46602528  0.47791093  0.81004414    -0.26100
C1335       C  0.49968088  0.00030708  0.79127633    -0.15300
C1336       C  0.02862873  0.03310419  0.80942450     0.37000
N1337       N  0.05487318  0.06419157  0.78882618    -0.89600
H1338       H  0.04672027  0.05521950  0.86943140     0.18100
H1339       H  0.44169271  0.46169505  0.79320390     0.18100
N1340       N  0.43226039  0.45497015  0.87395340    -0.88600
H1341       H  0.07989389  0.06922756  0.79852405     0.35500
H1342       H  0.05172568  0.08543270  0.79804695     0.40600
H1343       H  0.42260960  0.42887148  0.86438382     0.40200
H1344       H  0.41408754  0.46269663  0.86477710     0.35100
C1345       C  0.71727152  0.24899983  0.47843473    -0.26700
C1346       C  0.74798180  0.25406773  0.45822220    -0.14700
C1347       C  0.77704390  0.25809313  0.48145717     0.35900
C1348       C  0.77477950  0.25632510  0.52428205    -0.26100
C1349       C  0.74390250  0.25055634  0.54477001    -0.15300
C1350       C  0.71484400  0.24716333  0.52155368     0.37000
N1351       N  0.68320289  0.24219987  0.54161890    -0.89600
H1352       H  0.69493610  0.24598238  0.46049895     0.18100
H1353       H  0.79741856  0.25931794  0.54155266     0.18100
N1354       N  0.80925921  0.26471742  0.46171476    -0.88600
H1355       H  0.66420624  0.23945399  0.52001026     0.35500
H1356       H  0.68990660  0.26523035  0.55821106     0.40600
H1357       H  0.81457309  0.24472928  0.47022601     0.40200
H1358       H  0.82986477  0.28872721  0.47275243     0.35100
C1359       C  0.75075931  0.27703720  0.18961364    -0.26700
C1360       C  0.75281062  0.25042464  0.21153282    -0.14700
C1361       C  0.75495555  0.22351208  0.18943410     0.35900
C1362       C  0.75472478  0.22375461  0.14654323    -0.26100
C1363       C  0.75305537  0.25055027  0.12476457    -0.15300
C1364       C  0.75088656  0.27744318  0.14649994     0.37000
N1365       N  0.74812995  0.30466034  0.12482467    -0.89600
H1366       H  0.74907698  0.29770733  0.20619247     0.18100
H1367       H  0.75632650  0.20297823  0.13007581     0.18100
N1368       N  0.75663571  0.19515183  0.20938200    -0.88600
H1369       H  0.74712701  0.32256597  0.14538581     0.35500
H1370       H  0.72394958  0.29259428  0.10905112     0.40600
H1371       H  0.73481547  0.18217630  0.22899899     0.40200
H1372       H  0.78008043  0.20553683  0.22640317     0.35100
C1373       C  0.72127473  0.00113721  0.47450708    -0.26700
C1374       C  0.74994316  0.50529166  0.45845034    -0.14700
C1375       C  0.78042342  0.51329777  0.48143685     0.35900
C1376       C  0.77843377  0.51130811  0.52437518    -0.26100
C1377       C  0.74628639  0.50106292  0.54495160    -0.15300
C1378       C  0.71914397  0.00017801  0.51747229     0.37000
N1379       N  0.68772366  0.99599022  0.53697736    -0.89600
H1380       H  0.69878441  0.99803353  0.45680896     0.18100
H1381       H  0.80222528  0.51772875  0.54159401     0.18100
N1382       N  0.81363449  0.52429239  0.46131713    -0.88600
H1383       H  0.66618363  0.97230346  0.52664165     0.35500
H1384       H  0.68386015  0.01671033  0.52753402     0.40600
H1385       H  0.82246820  0.50684295  0.46962828     0.40200
H1386       H  0.83200112  0.54940397  0.47228975     0.35100
C1387       C  0.74534571  0.02042477  0.14100463    -0.26700
C1388       C  0.75044514  0.50265817  0.12542787    -0.14700
C1389       C  0.74828389  0.47433802  0.14854310     0.35900
C1390       C  0.74890788  0.47607737  0.19153098    -0.26100
C1391       C  0.75149317  0.50555202  0.21208930    -0.15300
C1392       C  0.74643075  0.02311286  0.18384187     0.37000
N1393       N  0.74330014  0.05103965  0.20294528    -0.89600
H1394       H  0.74151528  0.03923866  0.12322950     0.18100
H1395       H  0.74697890  0.45402865  0.20890300     0.18100
N1396       N  0.74615346  0.44404438  0.12861506    -0.88600
H1397       H  0.71909087  0.04864346  0.19403235     0.35500
H1398       H  0.76366714  0.07510934  0.19180832     0.40600
H1399       H  0.72298956  0.42166550  0.13853886     0.40200
H1400       H  0.76780744  0.44161198  0.13812495     0.35100
C1401       C  0.97157870  0.24894575  0.47610907    -0.26700
C1402       C  0.50013460  0.25322351  0.45447280    -0.14700
C1403       C  0.52954197  0.25769512  0.47733101     0.35900
C1404       C  0.52795717  0.25690551  0.52021064    -0.26100
C1405       C  0.99907133  0.25052191  0.54172084    -0.15300
C1406       C  0.97032801  0.24857510  0.51923567     0.37000
N1407       N  0.94026661  0.24671430  0.54009087    -0.89600
H1408       H  0.94961409  0.24748325  0.45877457     0.18100
H1409       H  0.55089618  0.26038010  0.53723094     0.18100
N1410       N  0.56144742  0.26390179  0.45714184    -0.88600
H1411       H  0.92124310  0.24475177  0.51898474     0.35500
H1412       H  0.94907123  0.27057026  0.55578902     0.40600
H1413       H  0.56691596  0.24411737  0.46611212     0.40200
H1414       H  0.58221829  0.28815281  0.46737265     0.35100
C1415       C  0.87788195  0.15920845  0.33886685    -0.26700
C1416       C  0.90962523  0.15949100  0.32983914    -0.14700
C1417       C  0.90824923  0.12716521  0.32070041     0.35900
C1418       C  0.87558786  0.09553353  0.32111170    -0.26100
C1419       C  0.84384055  0.09523153  0.33019704    -0.15300
C1420       C  0.84521436  0.12757589  0.33928002     0.37000
N1421       N  0.81367730  0.12854539  0.34967676    -0.89600
H1422       H  0.87834121  0.18366326  0.34620903     0.18100
H1423       H  0.87515839  0.07107855  0.31386357     0.18100
N1424       N  0.93979777  0.12622225  0.31029224    -0.88600
H1425       H  0.81082278  0.14512330  0.32878982     0.35500
H1426       H  0.81707194  0.13968590  0.37894658     0.40600
H1427       H  0.93641870  0.11512268  0.28099938     0.40200
H1428       H  0.94265006  0.10962190  0.33114389     0.35100
C1429       C  0.59361684  0.37892072  0.32885124    -0.26700
C1430       C  0.59431083  0.34740026  0.33494387    -0.14700
C1431       C  0.62726985  0.34938194  0.34241984     0.35900
C1432       C  0.65855575  0.38229350  0.34253817    -0.26100
C1433       C  0.65798930  0.41378542  0.33572364    -0.15300
C1434       C  0.62493288  0.41190035  0.32918846     0.37000
N1435       N  0.62284402  0.44324379  0.32248923    -0.89600
H1436       H  0.56862712  0.37808221  0.32333897     0.18100
H1437       H  0.68348977  0.38305065  0.34816878     0.18100
N1438       N  0.62926893  0.31815801  0.35043999    -0.88600
H1439       H  0.60644046  0.44453296  0.34512600     0.35500
H1440       H  0.61085264  0.44097623  0.29397007     0.40600
H1441       H  0.64086784  0.32087408  0.37931685     0.40200
H1442       H  0.64595634  0.31650794  0.32848256     0.35100
C1443       C  0.99483885  0.27520018  0.18652220    -0.26700
C1444       C  0.50364725  0.25261709  0.20761391    -0.14700
C1445       C  0.51205445  0.22967908  0.18578389     0.35900
C1446       C  0.51058085  0.22871150  0.14280563    -0.26100
C1447       C  0.50148185  0.25062323  0.12094341    -0.15300
C1448       C  0.99424983  0.27518548  0.14333751     0.37000
N1449       N  0.98591737  0.29875761  0.12153956    -0.89600
H1450       H  0.98934191  0.29344908  0.20320061     0.18100
H1451       H  0.51715728  0.21109005  0.12640045     0.18100
N1452       N  0.52178884  0.20701509  0.20693420    -0.88600
H1453       H  0.98147723  0.31459691  0.14207633     0.35500
H1454       H  0.96202369  0.28331243  0.10591551     0.40600
H1455       H  0.54701206  0.21295198  0.19686560     0.40200
H1456       H  0.50386024  0.18089881  0.19865429     0.35100
C1457       C  0.47076315  0.99872671  0.47876581    -0.26700
C1458       C  0.50195194  0.49882281  0.45534396    -0.14700
C1459       C  0.03152167  0.50332678  0.47683926     0.35900
C1460       C  0.03075877  0.50352880  0.51985989    -0.26100
C1461       C  0.49872157  0.00153642  0.54443858    -0.15300
C1462       C  0.46928169  0.99759849  0.52175900     0.37000
N1463       N  0.43800740  0.99295599  0.54209896    -0.89600
H1464       H  0.44791201  0.99540689  0.46166557     0.18100
H1465       H  0.05239450  0.50381077  0.53669710     0.18100
N1466       N  0.06114281  0.50443213  0.45610164    -0.88600
H1467       H  0.41649583  0.96916098  0.53196998     0.35500
H1468       H  0.43368531  0.01349925  0.53314272     0.40600
H1469       H  0.06306936  0.48253865  0.46542871     0.40200
H1470       H  0.08416113  0.52722338  0.46556658     0.35100
C1471       C  0.87454433  0.34545916  0.33149394    -0.26700
C1472       C  0.84259236  0.34613938  0.33401941    -0.14700
C1473       C  0.84412197  0.37932287  0.33580202     0.35900
C1474       C  0.87732097  0.41057108  0.33531651    -0.26100
C1475       C  0.90919702  0.40977011  0.33252271    -0.15300
C1476       C  0.90753889  0.37665734  0.33063120     0.37000
N1477       N  0.93919820  0.37433250  0.32765387    -0.89600
H1478       H  0.87410821  0.32044196  0.33000832     0.18100
H1479       H  0.87818557  0.43578509  0.33686225     0.18100
N1480       N  0.81220776  0.38145635  0.33825781    -0.88600
H1481       H  0.93771462  0.36044330  0.30083252     0.35500
H1482       H  0.93991461  0.35973561  0.35268780     0.40600
H1483       H  0.79924032  0.37307760  0.30998809     0.40200
H1484       H  0.81817762  0.40766342  0.34189660     0.35100
C1485       C  0.62650102  0.15981653  0.33886970    -0.26700
C1486       C  0.65858035  0.15958480  0.33465783    -0.14700
C1487       C  0.65743112  0.12672727  0.33050773     0.35900
C1488       C  0.62446979  0.09524941  0.33085102    -0.26100
C1489       C  0.59238861  0.09554040  0.33472554    -0.15300
C1490       C  0.59366866  0.12836337  0.33903168     0.37000
N1491       N  0.56181661  0.13010064  0.34392620    -0.89600
H1492       H  0.62675528  0.18463941  0.34236116     0.18100
H1493       H  0.62392888  0.07028220  0.32757044     0.18100
N1494       N  0.68953509  0.12522094  0.32557289    -0.88600
H1495       H  0.56060500  0.14552780  0.32014355     0.35500
H1496       H  0.56346606  0.14288701  0.37171056     0.40600
H1497       H  0.70032918  0.13626702  0.29700754     0.40200
H1498       H  0.68406267  0.09903150  0.32448426     0.35100
C1499       C  0.49760888  0.47242793  0.14240722    -0.26700
C1500       C  0.49756007  0.00013744  0.12447636    -0.14700
C1501       C  0.99557636  0.02696258  0.14422925     0.35900
C1502       C  0.99534637  0.02479141  0.18708253    -0.26100
C1503       C  0.49805806  0.99966743  0.21116185    -0.15300
C1504       C  0.49764122  0.47069201  0.18542125     0.37000
N1505       N  0.49444851  0.43989898  0.20544760    -0.89600
H1506       H  0.49583742  0.45057297  0.12467022     0.18100
H1507       H  0.99216699  0.04403460  0.20490614     0.18100
N1508       N  0.99049410  0.05397556  0.12602020    -0.88600
H1509       H  0.49311258  0.42152455  0.18385524     0.35500
H1510       H  0.47027255  0.42777611  0.22124115     0.40600
H1511       H  0.96877089  0.04207668  0.10609445     0.40200
H1512       H  0.01318508  0.07100168  0.10932669     0.35100
O1513       O  0.97337715  0.94088461  0.33133998    -0.72100
O1514       O  0.55978586  0.52866361  0.32981437    -0.72300
O1515       O  0.51670153  0.99010892  0.39286111    -0.72200
O1516       O  0.51382570  0.98684200  0.27661964    -0.72200
O1517       O  0.98790531  0.51718516  0.27340175    -0.72200
O1518       O  0.98747302  0.51573389  0.38969474    -0.72200
O1519       O  0.53036446  0.55667828  0.33349103    -0.72100
O1520       O  0.94415605  0.96917365  0.33211606    -0.72300
V1521       V  0.51470578  0.98903370  0.33473571     1.35200
V1522       V  0.98820997  0.51582499  0.33155430     1.35200
C1523       C  0.94389141  0.94002518  0.33225356     0.77100
C1524       C  0.55994694  0.55768284  0.33182407     0.77200
C1525       C  0.50098037  0.00321056  0.41264376     0.77100
C1526       C  0.50080544  0.49889378  0.25395371     0.77000
O1527       O  0.56071949  0.77994530  0.33392499    -0.72100
O1528       O  0.97422068  0.69591848  0.33759307    -0.72300
O1529       O  0.51685526  0.73486541  0.27693164    -0.72200
O1530       O  0.51748470  0.73845221  0.39335113    -0.72200
O1531       O  0.98801179  0.76735181  0.39405410    -0.72200
O1532       O  0.98964229  0.76829422  0.27751210    -0.72200
O1533       O  0.94537136  0.72449502  0.33471524    -0.72100
O1534       O  0.53206244  0.80874743  0.33488640    -0.72300
V1535       V  0.51667108  0.73719343  0.33513015     1.35200
V1536       V  0.98948701  0.76738161  0.33578873     1.35200
C1537       C  0.56144892  0.80923502  0.33465850     0.77100
C1538       C  0.94484794  0.69525562  0.33579205     0.77200
C1539       C  0.50344139  0.74976127  0.25621338     0.77100
C1540       C  0.50164871  0.75191548  0.41226012     0.77000
O1541       O  0.78029942  0.56364025  0.33749145    -0.72100
O1542       O  0.69382507  0.97280278  0.33031288    -0.72300
O1543       O  0.73464576  0.51869612  0.39347995    -0.72200
O1544       O  0.73857536  0.52201498  0.27706754    -0.72200
O1545       O  0.76545196  0.98576554  0.27375447    -0.72200
O1546       O  0.76759652  0.99075137  0.39013723    -0.72200
O1547       O  0.72302393  0.94460478  0.33420029    -0.72100
O1548       O  0.80885543  0.53480702  0.33326509    -0.72300
V1549       V  0.73715515  0.51985489  0.33527819     1.35200
V1550       V  0.76591400  0.98879380  0.33194111     1.35200
C1551       C  0.80958400  0.56412521  0.33528200     0.77100
C1552       C  0.69348997  0.94375225  0.33282724     0.77200
C1553       C  0.75072000  0.50605206  0.41333448     0.77100
C1554       C  0.75127689  0.50585961  0.25737883     0.77000
O1555       O  0.72373534  0.69052809  0.33348106    -0.72100
O1556       O  0.81027500  0.77817426  0.33621947    -0.72300
O1557       O  0.76547321  0.73381654  0.39299703    -0.72200
O1558       O  0.76849874  0.73465966  0.27682366    -0.72200
O1559       O  0.73960899  0.76324026  0.27539916    -0.72200
O1560       O  0.73549924  0.76132235  0.39187460    -0.72200
O1561       O  0.78076159  0.80617757  0.33573515    -0.72100
O1562       O  0.69437173  0.71867566  0.33166014    -0.72300
V1563       V  0.76645343  0.73487121  0.33488334     1.35200
V1564       V  0.73814474  0.76183705  0.33367715     1.35200
C1565       C  0.69421430  0.68961986  0.33191987     0.77100
C1566       C  0.81034503  0.80721631  0.33650613     0.77200
C1567       C  0.74981729  0.74718056  0.41239890     0.77100
C1568       C  0.75438351  0.74882160  0.25613954     0.77000
O1569       O  0.97210893  0.53401264  0.99515597    -0.72100
O1570       O  0.55563275  0.52950503  0.99918818    -0.72300
O1571       O  0.51243542  0.52759762  0.93976230    -0.72200
O1572       O  0.51135132  0.52974761  0.05609504    -0.72200
O1573       O  0.98708988  0.97407403  0.05504646    -0.72200
O1574       O  0.98664359  0.97397233  0.93881630    -0.72200
O1575       O  0.52645039  0.96859538  0.00052207    -0.72100
O1576       O  0.94287280  0.97317206  0.99711307    -0.72300
V1577       V  0.51131464  0.52761602  0.99793646     1.35200
V1578       V  0.98740278  0.97519275  0.99691584     1.35200
C1579       C  0.94156626  0.00146188  0.99588560     0.77100
C1580       C  0.55625863  0.99656012  0.00271241     0.77200
C1581       C  0.49642974  0.49857368  0.92062627     0.77100
C1582       C  0.49912226  0.50153870  0.07660867     0.77000
O1583       O  0.51551297  0.77549739  0.94219435    -0.72100
O1584       O  0.51480863  0.77709348  0.05858084    -0.72300
O1585       O  0.55840605  0.77556784  0.00139995    -0.74600
O1586       O  0.97250355  0.77793204  0.99982188    -0.72200
O1587       O  0.94329525  0.72066453  0.00264023    -0.72200
O1588       O  0.52910065  0.71831263  0.99862487    -0.72200
O1589       O  0.98664069  0.72061211  0.06122587    -0.72100
O1590       O  0.98673473  0.71962751  0.94495810    -0.72300
V1591       V  0.51470612  0.77523415  0.00041828     1.35200
V1592       V  0.98717636  0.72124336  0.00305592     1.35200
C1593       C  0.49851128  0.74664037  0.92288075     0.77100
C1594       C  0.50174041  0.74867394  0.07883567     0.77200
C1595       C  0.55858567  0.74671187  0.99996455     0.77100
C1596       C  0.94309927  0.74950824  0.00089965     0.77000
O1597       O  0.77526792  0.96422725  0.99529299    -0.72100
O1598       O  0.68710668  0.96198987  0.00045685    -0.72300
O1599       O  0.72917412  0.96292757  0.93943813    -0.72200
O1600       O  0.73356181  0.96355176  0.05627428    -0.72200
O1601       O  0.76226257  0.53033870  0.05983114    -0.72200
O1602       O  0.76334311  0.52943749  0.94357489    -0.72200
O1603       O  0.71871452  0.52903206  0.00064913    -0.72100
O1604       O  0.80658473  0.53023707  0.00251259    -0.72300
V1605       V  0.73176092  0.96422604  0.99786156     1.35200
V1606       V  0.76218519  0.52869353  0.00168953     1.35200
C1607       C  0.80419524  0.99315514  0.99561637     0.77100
C1608       C  0.68589620  0.99030357  0.00033483     0.77200
C1609       C  0.74350382  0.99171544  0.91970542     0.77100
C1610       C  0.74735954  0.99249835  0.07578850     0.77000
O1611       O  0.80900884  0.77692968  0.00138092    -0.72100
O1612       O  0.72209150  0.77741486  0.00028857    -0.72300
O1613       O  0.76496394  0.77725188  0.05892444    -0.72200
O1614       O  0.76614567  0.77743826  0.94275030    -0.72200
O1615       O  0.73459877  0.72018582  0.94230417    -0.72200
O1616       O  0.73891754  0.71991812  0.05878594    -0.72200
O1617       O  0.69329164  0.72016455  0.00339292    -0.72100
O1618       O  0.78004089  0.71970778  0.99765186    -0.72300
V1619       V  0.76502050  0.77615987  0.00082732     1.35200
V1620       V  0.73725159  0.72106245  0.00054517     1.35200
C1621       C  0.80939019  0.74818446  0.99910562     0.77100
C1622       C  0.69280661  0.74886822  0.00230592     0.77200
C1623       C  0.75210200  0.74862616  0.07866859     0.77100
C1624       C  0.75013947  0.74895351  0.92263554     0.77000
O1625       O  0.52621615  0.96954120  0.66848205    -0.72100
O1626       O  0.52676227  0.55751090  0.66431635    -0.72300
O1627       O  0.52646449  0.51461455  0.72338497    -0.72200
O1628       O  0.52715500  0.51306103  0.60727505    -0.72200
O1629       O  0.97558372  0.98906312  0.60541329    -0.72200
O1630       O  0.97513502  0.98721590  0.72174829    -0.72200
O1631       O  0.97448921  0.53132984  0.66635108    -0.72100
O1632       O  0.97458567  0.94426883  0.66267779    -0.72300
V1633       V  0.52558816  0.51334653  0.66534963     1.35200
V1634       V  0.97640274  0.98858503  0.66358557     1.35200
C1635       C  0.49697166  0.94076052  0.66793128     0.77100
C1636       C  0.49799514  0.55820929  0.66469041     0.77200
C1637       C  0.49775630  0.49987371  0.74334137     0.77100
C1638       C  0.49852723  0.49942048  0.58716411     0.77000
O1639       O  0.97474564  0.78120455  0.67197246    -0.72100
O1640       O  0.97384438  0.69377288  0.66777262    -0.72300
O1641       O  0.97503125  0.73616056  0.72800167    -0.72200
O1642       O  0.97348843  0.73868792  0.61173098    -0.72200
O1643       O  0.52409177  0.76279621  0.60920221    -0.72200
O1644       O  0.52444527  0.76194607  0.72509047    -0.72200
O1645       O  0.52366245  0.71863049  0.66625992    -0.72100
O1646       O  0.52474149  0.80599310  0.66793052    -0.72300
V1647       V  0.97536447  0.73798410  0.66987107     1.35200
V1648       V  0.52305887  0.76175875  0.66714708     1.35200
C1649       C  0.49630251  0.80720461  0.66886948     0.77100
C1650       C  0.49478825  0.68959591  0.66495607     0.77200
C1651       C  0.00407534  0.75156875  0.74733819     0.77100
C1652       C  0.00198640  0.75186424  0.59133245     0.77000
O1653       O  0.77329001  0.51349014  0.72697127    -0.72100
O1654       O  0.77420166  0.51330991  0.61067576    -0.72300
O1655       O  0.77318604  0.55653596  0.66857992    -0.72200
O1656       O  0.77408951  0.97004786  0.66454143    -0.72200
O1657       O  0.71673979  0.94082433  0.65985210    -0.72200
O1658       O  0.71565431  0.52747109  0.66895542    -0.72200
O1659       O  0.71736350  0.98723616  0.60527220    -0.72100
O1660       O  0.71417441  0.98018237  0.72151751    -0.72300
V1661       V  0.77259854  0.51274161  0.66883066     1.35200
V1662       V  0.71687704  0.98432233  0.66339556     1.35200
C1663       C  0.74245643  0.99497232  0.74234448     0.77100
C1664       C  0.74665044  0.00186247  0.58635821     0.77200
C1665       C  0.74422201  0.55681959  0.66866431     0.77100
C1666       C  0.74572845  0.94064503  0.66165137     0.77000
O1667       O  0.71613209  0.73312087  0.72561393    -0.72100
O1668       O  0.71599702  0.73501310  0.60913838    -0.72300
O1669       O  0.71659189  0.69081400  0.66624222    -0.72200
O1670       O  0.71561051  0.77734550  0.66845737    -0.72200
O1671       O  0.77299984  0.80622429  0.66425450    -0.72200
O1672       O  0.77399761  0.71987992  0.67033317    -0.72200
O1673       O  0.77356979  0.76054652  0.60930723    -0.72100
O1674       O  0.77356755  0.76537263  0.72540589    -0.72300
V1675       V  0.71714557  0.73461951  0.66737444     1.35200
V1676       V  0.77244166  0.76249368  0.66733626     1.35200
C1677       C  0.74492385  0.74914254  0.74538329     0.77100
C1678       C  0.74482490  0.74757271  0.58948018     0.77200
C1679       C  0.74549534  0.69051166  0.66879024     0.77100
C1680       C  0.74411517  0.80664154  0.66578616     0.77000
C1681       C  0.71363067  0.87489034  0.66452515    -0.26700
C1682       C  0.74604129  0.90669937  0.66124777    -0.14700
C1683       C  0.77786118  0.90532405  0.65880227     0.35900
C1684       C  0.77641600  0.87243083  0.66061171    -0.26100
C1685       C  0.74398435  0.84066184  0.66425997    -0.15300
C1686       C  0.71227955  0.84213847  0.66604784     0.37000
N1687       N  0.67851581  0.81056391  0.66965626    -0.89600
H1688       H  0.68894194  0.87528904  0.66642206     0.18100
H1689       H  0.80093067  0.87169945  0.65889662     0.18100
N1690       N  0.81155719  0.93713968  0.65441170    -0.88600
H1691       H  0.66290135  0.80933807  0.64461401     0.35500
H1692       H  0.66622530  0.81243480  0.69641540     0.40600
H1693       H  0.81193553  0.94763985  0.62547702     0.40200
H1694       H  0.83231450  0.93152376  0.65456010     0.35100
C1695       C  0.77534171  0.62206652  0.67868724    -0.26700
C1696       C  0.74403073  0.59074688  0.66867324    -0.14700
C1697       C  0.71332669  0.59251953  0.65891535     0.35900
C1698       C  0.71445064  0.62518725  0.65953773    -0.26100
C1699       C  0.74573060  0.65656585  0.66957410    -0.15300
C1700       C  0.77652882  0.65484703  0.67963849     0.37000
N1701       N  0.80883558  0.68616232  0.69118523    -0.89600
H1702       H  0.79899357  0.62096383  0.68649282     0.18100
H1703       H  0.69062925  0.62592231  0.65156681     0.18100
N1704       N  0.68104164  0.56139380  0.64750865    -0.88600
H1705       H  0.82917008  0.68040721  0.69631111     0.35500
H1706       H  0.80426711  0.69482500  0.71929300     0.40600
H1707       H  0.67397793  0.56521691  0.61806931     0.40200
H1708       H  0.66114433  0.55847489  0.66787021     0.35100
C1709       C  0.97154036  0.84430809  0.66799397    -0.26700
C1710       C  0.49690870  0.84159400  0.66907267    -0.14700
C1711       C  0.52881253  0.87413760  0.66466647     0.35900
C1712       C  0.52806866  0.90588556  0.66438758    -0.26100
C1713       C  0.49609499  0.90626147  0.66844088    -0.15300
C1714       C  0.97047287  0.87591476  0.66681434     0.37000
N1715       N  0.93675593  0.87430284  0.66535786    -0.89600
H1716       H  0.94670727  0.81948376  0.66736188     0.18100
H1717       H  0.55287501  0.93043877  0.66075206     0.18100
N1718       N  0.56216998  0.87531111  0.66015055    -0.88600
H1719       H  0.92218309  0.86050298  0.69120608     0.35500
H1720       H  0.92322180  0.85990177  0.63926683     0.40600
H1721       H  0.57885627  0.89076052  0.68395624     0.40200
H1722       H  0.57350850  0.88779072  0.63234200     0.35100
C1723       C  0.97244027  0.59475082  0.65872848    -0.26700
C1724       C  0.49772869  0.59211234  0.66454323    -0.14700
C1725       C  0.52675213  0.62378129  0.67936234     0.35900
C1726       C  0.52515783  0.65514647  0.67851993    -0.26100
C1727       C  0.49506474  0.65570514  0.66381109    -0.15300
C1728       C  0.97129528  0.62629856  0.65901619     0.37000
N1729       N  0.93871905  0.62529609  0.64902243    -0.89600
H1730       H  0.94848131  0.57038377  0.65103391     0.18100
H1731       H  0.54737097  0.67923761  0.69035158     0.18100
N1732       N  0.55744538  0.62395439  0.69608776    -0.88600
H1733       H  0.91931774  0.60842496  0.66979862     0.35500
H1734       H  0.93100270  0.61447448  0.61961756     0.40600
H1735       H  0.54947558  0.60867499  0.72281282     0.40200
H1736       H  0.57658909  0.64947004  0.70503127     0.35100
C1737       C  0.72132783  0.72081215  0.85647675    -0.26700
C1738       C  0.74921812  0.74929392  0.87728497    -0.14700
C1739       C  0.77554071  0.77772907  0.85440219     0.35900
C1740       C  0.77350957  0.77716872  0.81146474    -0.26100
C1741       C  0.74544026  0.74888174  0.79069831    -0.15300
C1742       C  0.71911403  0.72045183  0.81351266     0.37000
N1743       N  0.69056213  0.69075257  0.79322907    -0.89600
H1744       H  0.70090540  0.69878337  0.87360922     0.18100
H1745       H  0.79399775  0.79913245  0.79430684     0.18100
N1746       N  0.80479967  0.80693295  0.87447950    -0.88600
H1747       H  0.66668442  0.68812280  0.80396093     0.35500
H1748       H  0.69141291  0.66807558  0.80162442     0.40600
H1749       H  0.80473664  0.83003128  0.86617160     0.40200
H1750       H  0.82826741  0.80873864  0.86352562     0.35100
C1751       C  0.77461950  0.52500892  0.81265152    -0.26700
C1752       C  0.74187730  0.99337632  0.78764036    -0.14700
C1753       C  0.71524248  0.96436267  0.80940883     0.35900
C1754       C  0.71642031  0.96398943  0.85248746    -0.26100
C1755       C  0.74360796  0.99232760  0.87429830    -0.15300
C1756       C  0.77643160  0.52620156  0.85569480     0.37000
N1757       N  0.80761113  0.55312419  0.87605259    -0.89600
H1758       H  0.79682452  0.54476164  0.79508309     0.18100
H1759       H  0.69574165  0.94161409  0.86892079     0.18100
N1760       N  0.68742219  0.93491757  0.78795000    -0.88600
H1761       H  0.82615538  0.57022597  0.85466914     0.35500
H1762       H  0.81948490  0.54062676  0.89132984     0.40600
H1763       H  0.66316710  0.93179074  0.79798868     0.40200
H1764       H  0.68835321  0.91222902  0.79608232     0.35100
C1765       C  0.87784118  0.71839521  0.99069418    -0.26700
C1766       C  0.90924510  0.74978261  0.00007451    -0.14700
C1767       C  0.90760246  0.78063873  0.00871939     0.35900
C1768       C  0.87485758  0.77951380  0.00782379    -0.26100
C1769       C  0.84338712  0.74808061  0.99866034    -0.15300
C1770       C  0.84508403  0.71725878  0.98977626     0.37000
N1771       N  0.81379642  0.68477033  0.97937507    -0.89600
H1772       H  0.87862379  0.69450437  0.98368972     0.18100
H1773       H  0.87414008  0.80342061  0.01491381     0.18100
N1774       N  0.93891067  0.81305997  0.01927282    -0.88600
H1775       H  0.81106178  0.66552635  0.00045132     0.35500
H1776       H  0.81744946  0.67696424  0.95024187     0.40600
H1777       H  0.93522414  0.82080745  0.04842386     0.40200
H1778       H  0.94174919  0.83237435  0.99824361     0.35100
C1779       C  0.62733429  0.71712808  0.99386636    -0.26700
C1780       C  0.65870612  0.74875577  0.00277208    -0.14700
C1781       C  0.65689454  0.77958783  0.01133535     0.35900
C1782       C  0.62396574  0.77819302  0.00965261    -0.26100
C1783       C  0.59260888  0.74659649  0.00049554    -0.15300
C1784       C  0.59446246  0.71574182  0.99267880     0.37000
N1785       N  0.56322436  0.68298017  0.98298920    -0.89600
H1786       H  0.62824846  0.69324969  0.98722967     0.18100
H1787       H  0.62280565  0.80194017  0.01622028     0.18100
N1788       N  0.68826080  0.81208868  0.02223475    -0.88600
H1789       H  0.56065697  0.66420679  0.00467123     0.35500
H1790       H  0.56681948  0.67461972  0.95416866     0.40600
H1791       H  0.69706727  0.80818560  0.05057535     0.40200
H1792       H  0.68236773  0.83235388  0.02663334     0.35100
C1793       C  0.52768031  0.76981819  0.85609199    -0.26700
C1794       C  0.49703898  0.74634107  0.87767122    -0.14700
C1795       C  0.97917971  0.71791539  0.85549512     0.35900
C1796       C  0.97994913  0.72010686  0.81273106    -0.26100
C1797       C  0.00445032  0.75101290  0.79249409    -0.15300
C1798       C  0.52795556  0.77113832  0.81305367     0.37000
N1799       N  0.55979487  0.79598074  0.79195918    -0.89600
H1800       H  0.55164581  0.78720123  0.87297361     0.18100
H1801       H  0.96145627  0.69717217  0.79507216     0.18100
N1802       N  0.95355574  0.68513480  0.87366128    -0.88600
H1803       H  0.58050550  0.81000240  0.81273529     0.35500
H1804       H  0.55475887  0.81456074  0.77790483     0.40600
H1805       H  0.93715481  0.68971454  0.89317010     0.40200
H1806       H  0.96684451  0.67483604  0.89038569     0.35100
C1807       C  0.87599245  0.96740351  0.00127093    -0.26700
C1808       C  0.90683956  0.00022628  0.99534343    -0.14700
C1809       C  0.90645644  0.53695322  0.00245864     0.35900
C1810       C  0.87325307  0.53466689  0.00345660    -0.26100
C1811       C  0.83889166  0.99435357  0.99501018    -0.15300
C1812       C  0.84235640  0.96407354  0.00125454     0.37000
N1813       N  0.81255530  0.92961172  0.00829963    -0.89600
H1814       H  0.87785823  0.94384553  0.00631785     0.18100
H1815       H  0.87229133  0.55888553  0.00681478     0.18100
N1816       N  0.93715349  0.57133140  0.00634072    -0.88600
H1817       H  0.79593903  0.92195879  0.98265557     0.35500
H1818       H  0.79884095  0.93052409  0.03426896     0.40600
H1819       H  0.95257008  0.57685806  0.97983309     0.40200
H1820       H  0.95177095  0.57158529  0.03196333     0.35100
C1821       C  0.58917705  0.96508144  0.98683112    -0.26700
C1822       C  0.58941143  0.99491602  0.00352889    -0.14700
C1823       C  0.62454357  0.53349523  0.99677541     0.35900
C1824       C  0.65581029  0.53191877  0.99800239    -0.26100
C1825       C  0.65189433  0.99016344  0.00222830    -0.15300
C1826       C  0.61990455  0.96239415  0.98594512     0.37000
N1827       N  0.61790849  0.93174883  0.96713019    -0.89600
H1828       H  0.56504113  0.94385828  0.97361433     0.18100
H1829       H  0.68084316  0.55651800  0.99676116     0.18100
N1830       N  0.62784229  0.56775469  0.99376596    -0.88600
H1831       H  0.62381971  0.91807041  0.98913308     0.35500
H1832       H  0.63657695  0.93988477  0.94340836     0.40600
H1833       H  0.61640268  0.57219413  0.01966477     0.40200
H1834       H  0.61484765  0.56872503  0.96719707     0.35100
C1835       C  0.02986941  0.52867428  0.85322249    -0.26700
C1836       C  0.49629632  0.49800496  0.87552932    -0.14700
C1837       C  0.47051915  0.97174249  0.85542463     0.35900
C1838       C  0.47108547  0.97292122  0.81241163    -0.26100
C1839       C  0.49786018  0.49950809  0.78887566    -0.15300
C1840       C  0.03123074  0.52878780  0.81013859     0.37000
N1841       N  0.06143083  0.55636505  0.78909561    -0.89600
H1842       H  0.05198758  0.54908919  0.87033759     0.18100
H1843       H  0.44913126  0.95210100  0.79549508     0.18100
N1844       N  0.44067094  0.94366642  0.87602004    -0.88600
H1845       H  0.08044010  0.57355344  0.81006718     0.35500
H1846       H  0.05277021  0.57133897  0.77290609     0.40600
H1847       H  0.43823694  0.91971080  0.86628102     0.40200
H1848       H  0.41787009  0.94415512  0.86686425     0.35100
C1849       C  0.72738180  0.75820835  0.47808790    -0.26700
C1850       C  0.74824657  0.74641339  0.45791691    -0.14700
C1851       C  0.76736541  0.73441414  0.48168391     0.35900
C1852       C  0.76591919  0.73521027  0.52458650    -0.26100
C1853       C  0.74515676  0.74699846  0.54443038    -0.15300
C1854       C  0.72560095  0.75856000  0.52115447     0.37000
N1855       N  0.70468158  0.77129758  0.54133528    -0.89600
H1856       H  0.71251966  0.76738142  0.46027899     0.18100
H1857       H  0.78084017  0.72615677  0.54254270     0.18100
N1858       N  0.78842876  0.72149829  0.46262918    -0.88600
H1859       H  0.69188776  0.77880148  0.51976427     0.35500
H1860       H  0.72205459  0.79415429  0.55759823     0.40600
H1861       H  0.77903300  0.69553893  0.47248255     0.40200
H1862       H  0.81457152  0.73687314  0.47287641     0.35100
C1863       C  0.74805410  0.77268137  0.18952620    -0.26700
C1864       C  0.75482401  0.74857318  0.21059540    -0.14700
C1865       C  0.76072515  0.72432914  0.18748034     0.35900
C1866       C  0.75915249  0.72449567  0.14460234    -0.26100
C1867       C  0.75269424  0.74880840  0.12387048    -0.15300
C1868       C  0.74715859  0.77312511  0.14654775     0.37000
N1869       N  0.73963253  0.79768196  0.12607193    -0.89600
H1870       H  0.74342635  0.79142269  0.20643690     0.18100
H1871       H  0.76360217  0.70580265  0.12730073     0.18100
N1872       N  0.76781730  0.69885480  0.20631718    -0.88600
H1873       H  0.75882418  0.82321356  0.13487604     0.35500
H1874       H  0.71494211  0.79331925  0.13623766     0.40600
H1875       H  0.74697712  0.68315587  0.22620750     0.40200
H1876       H  0.79154209  0.71214965  0.22281854     0.35100
C1877       C  0.71797757  0.49562545  0.47874529    -0.26700
C1878       C  0.75158758  0.00516366  0.45436391    -0.14700
C1879       C  0.78073307  0.00945374  0.47770183     0.35900
C1880       C  0.77880326  0.00887316  0.52068918    -0.26100
C1881       C  0.74802897  0.00371804  0.54096992    -0.15300
C1882       C  0.71575462  0.49310824  0.52166248     0.37000
N1883       N  0.68247129  0.48271118  0.54126744    -0.89600
H1884       H  0.69438087  0.48931147  0.46114879     0.18100
H1885       H  0.80137053  0.01197248  0.53820278     0.18100
N1886       N  0.81258419  0.01508913  0.45790577    -0.88600
H1887       H  0.66383144  0.45780386  0.53003170     0.35500
H1888       H  0.67427448  0.50064502  0.53287710     0.40600
H1889       H  0.81767203  0.99515151  0.46732338     0.40200
H1890       H  0.83349585  0.03927692  0.46807006     0.35100
C1891       C  0.75391867  0.53252838  0.14607281    -0.26700
C1892       C  0.74871583  0.99375831  0.12103399    -0.14700
C1893       C  0.75415628  0.96970371  0.14442934     0.35900
C1894       C  0.75526795  0.97243452  0.18753686    -0.26100
C1895       C  0.75114309  0.99875848  0.20758081    -0.15300
C1896       C  0.75443699  0.53418944  0.18907374     0.37000
N1897       N  0.75886933  0.56537174  0.20917085    -0.89600
H1898       H  0.75603261  0.55470313  0.12881430     0.18100
H1899       H  0.75916636  0.95378959  0.20553009     0.18100
N1900       N  0.75916745  0.94311097  0.12441027    -0.88600
H1901       H  0.73818579  0.56949547  0.19993705     0.35500
H1902       H  0.78273069  0.58682928  0.19909302     0.40600
H1903       H  0.76276583  0.92752237  0.14607185     0.40200
H1904       H  0.78271605  0.95606414  0.10750631     0.35100
C1905       C  0.97419725  0.75143243  0.48037443    -0.26700
C1906       C  0.50047705  0.75208226  0.45747260    -0.14700
C1907       C  0.52853719  0.75423226  0.48114002     0.35900
C1908       C  0.52620387  0.75356675  0.52396901    -0.26100
C1909       C  0.00179071  0.75279523  0.54591245    -0.15300
C1910       C  0.97286737  0.75060029  0.52350959     0.37000
N1911       N  0.94249481  0.74797199  0.54443555    -0.89600
H1912       H  0.95194821  0.74941908  0.46313270     0.18100
H1913       H  0.54798333  0.75500476  0.54168257     0.18100
N1914       N  0.55984567  0.75791155  0.46186444    -0.88600
H1915       H  0.92339689  0.74589539  0.52337879     0.35500
H1916       H  0.95089295  0.77163019  0.56043761     0.40600
H1917       H  0.56318303  0.73686892  0.47131363     0.40200
H1918       H  0.58158609  0.78135632  0.47239359     0.35100
C1919       C  0.87878315  0.66222563  0.33717504    -0.26700
C1920       C  0.91060615  0.66131645  0.33494553    -0.14700
C1921       C  0.90893620  0.62813477  0.33194595     0.35900
C1922       C  0.87572315  0.59698550  0.33248144    -0.26100
C1923       C  0.84393536  0.59795416  0.33503224    -0.15300
C1924       C  0.84570890  0.63112967  0.33707100     0.37000
N1925       N  0.81409807  0.63361872  0.33905431    -0.89600
H1926       H  0.87939759  0.68731261  0.33915080     0.18100
H1927       H  0.87475724  0.57174266  0.33048768     0.18100
N1928       N  0.94075179  0.62594409  0.32809749    -0.88600
H1929       H  0.81402802  0.64849956  0.31396594     0.35500
H1930       H  0.81505378  0.64728522  0.36587399     0.40600
H1931       H  0.95185298  0.63633193  0.29940751     0.40200
H1932       H  0.93485589  0.59961439  0.32787269     0.35100
C1933       C  0.59499135  0.87505665  0.33789806    -0.26700
C1934       C  0.59569472  0.84327507  0.33517536    -0.14700
C1935       C  0.62900818  0.84480205  0.33267602     0.35900
C1936       C  0.66032512  0.87784659  0.33168613    -0.26100
C1937       C  0.65951030  0.90956909  0.33402442    -0.15300
C1938       C  0.62632751  0.90792881  0.33764792     0.37000
N1939       N  0.62410623  0.93947891  0.34146971    -0.89600
H1940       H  0.56988647  0.87456329  0.34036618     0.18100
H1941       H  0.68561029  0.87872833  0.32924471     0.18100
N1942       N  0.63120166  0.81301275  0.33099015    -0.88600
H1943       H  0.61116869  0.93817255  0.36905508     0.35500
H1944       H  0.60853146  0.94002910  0.31735076     0.40600
H1945       H  0.62341036  0.80082418  0.35969979     0.40200
H1946       H  0.65744297  0.81889962  0.32684929     0.35100
C1947       C  0.99109105  0.77223691  0.19071920    -0.26700
C1948       C  0.50335526  0.74909962  0.21075273    -0.14700
C1949       C  0.50792292  0.72391694  0.18835375     0.35900
C1950       C  0.50705421  0.72409178  0.14532733    -0.26100
C1951       C  0.50203241  0.74917232  0.12407832    -0.15300
C1952       C  0.98979690  0.77181817  0.14759670     0.37000
N1953       N  0.97851933  0.79321429  0.12594809    -0.89600
H1954       H  0.98402597  0.78932627  0.20745024     0.18100
H1955       H  0.51068817  0.70469571  0.12843438     0.18100
N1956       N  0.51284531  0.69772851  0.20902005    -0.88600
H1957       H  0.97245789  0.80783216  0.14657210     0.35500
H1958       H  0.95493003  0.77615451  0.11059469     0.40600
H1959       H  0.53693584  0.70028120  0.19925241     0.40200
H1960       H  0.49248299  0.67280423  0.19998181     0.35100
C1961       C  0.47469988  0.50120733  0.47568747    -0.26700
C1962       C  0.50099194  0.00339210  0.45783508    -0.14700
C1963       C  0.02905795  0.99360581  0.47660478     0.35900
C1964       C  0.02865051  0.99444968  0.51964094    -0.26100
C1965       C  0.49916807  0.49917519  0.54191947    -0.15300
C1966       C  0.47302700  0.50127149  0.51861432     0.37000
N1967       N  0.44525714  0.50441920  0.53835562    -0.89600
H1968       H  0.45437647  0.50287857  0.45822326     0.18100
H1969       H  0.04683250  0.98906856  0.53670898     0.18100
N1970       N  0.05397704  0.98642681  0.45612603    -0.88600
H1971       H  0.42095320  0.48334651  0.52865425     0.35500
H1972       H  0.44671188  0.52787843  0.52844170     0.40600
H1973       H  0.04952592  0.96173577  0.46587651     0.40200
H1974       H  0.07951055  0.00546455  0.46535659     0.35100
C1975       C  0.87586831  0.84168275  0.32681019    -0.26700
C1976       C  0.84430555  0.84140473  0.33684632    -0.14700
C1977       C  0.84586242  0.87378360  0.34619683     0.35900
C1978       C  0.87845641  0.90552321  0.34434961    -0.26100
C1979       C  0.90995839  0.90581765  0.33376195    -0.15300
C1980       C  0.90844248  0.87333641  0.32513474     0.37000
N1981       N  0.93974440  0.87221728  0.31391167    -0.89600
H1982       H  0.87532366  0.81718051  0.31951180     0.18100
H1983       H  0.87905829  0.93005214  0.35165495     0.18100
N1984       N  0.81460739  0.87466413  0.35824549    -0.88600
H1985       H  0.93565390  0.86050828  0.28489643     0.35500
H1986       H  0.94315364  0.85607749  0.33494381     0.40600
H1987       H  0.81093553  0.89097178  0.33774300     0.40200
H1988       H  0.81897625  0.88611077  0.38744416     0.35100
C1989       C  0.62900807  0.65529608  0.34339013    -0.26700
C1990       C  0.66014846  0.65561473  0.33106677    -0.14700
C1991       C  0.65814479  0.62358757  0.31876723     0.35900
C1992       C  0.62521592  0.59210554  0.31959237    -0.26100
C1993       C  0.59405059  0.59175818  0.33205236    -0.15300
C1994       C  0.59613535  0.62381214  0.34448206     0.37000
N1995       N  0.56513292  0.62435230  0.35892419    -0.89600
H1996       H  0.63041078  0.67969930  0.35319798     0.18100
H1997       H  0.62386553  0.56770966  0.30986155     0.18100
N1998       N  0.68932410  0.62308882  0.30492927    -0.88600
H1999       H  0.57112355  0.65013617  0.36596091     0.35500
H2000       H  0.55737871  0.61023623  0.38648288     0.40600
H2001       H  0.69755996  0.63745678  0.27757736     0.40200
H2002       H  0.68337137  0.59733698  0.29775364     0.35100
C2003       C  0.50326674  0.97553871  0.14576621    -0.26700
C2004       C  0.49982363  0.50184590  0.12206941    -0.14700
C2005       C  0.99689411  0.53072234  0.14464642     0.35900
C2006       C  0.99674157  0.52876202  0.18750262    -0.26100
C2007       C  0.50012512  0.49911021  0.20869929    -0.15300
C2008       C  0.50366004  0.97511454  0.18877055     0.37000
N2009       N  0.50920987  0.94931315  0.20941787    -0.89600
H2010       H  0.50793126  0.95677962  0.12892332     0.18100
H2011       H  0.99294353  0.54769728  0.20516080     0.18100
N2012       N  0.99101349  0.55713416  0.12616114    -0.88600
H2013       H  0.53365494  0.95257446  0.19994896     0.35500
H2014       H  0.48936392  0.92423115  0.20007066     0.40600
H2015       H  0.96919811  0.54468482  0.10641884     0.40200
H2016       H  0.01344763  0.57429045  0.10917947     0.35100
loop_ 
_geom_bond_atom_site_label_1 
_geom_bond_atom_site_label_2 
_geom_bond_distance 
_geom_bond_site_symmetry_2 
_ccdc_geom_bond_type 
O1           C11   1.264       .  A
O1         V1017   1.897       .  S
O2           C12   1.264       .  A
O2          V513   1.897   1_545  S
O3           C13   1.264       .  A
O3            V9   1.896       .  S
O4          C518   1.264       .  A
O4            V9   1.897       .  S
O5         C1022   1.265       .  A
O5           V10   1.897       .  S
O6         C1525   1.263       .  A
O6           V10   1.895       .  S
O7           C12   1.266       .  A
O7         V1018   1.901   1_455  S
O8           C11   1.267       .  A
O8          V514   1.904       .  S
V9         O1009   1.900   1_455  S
V9          O506   1.898       .  S
V9         V1522   2.085   1_455  T
V10        O1015   1.903       .  S
V10         O512   1.900   1_545  S
V10        V1521   2.085   1_545  T
C11         C467   1.488       .  S
C12         C481   1.486       .  S
C13        O1518   1.263   1_455  A
C13         C450   1.474       .  S
C14         O508   1.265       .  A
C14        O1013   1.264   1_465  A
C14         C495   1.480   1_455  S
O15          C25   1.264       .  A
O15          V23   1.895       .  S
O16          C26   1.264       .  A
O16        V1031   1.898       .  S
O17          C27   1.263       .  A
O17          V23   1.890       .  S
O18          C28   1.263       .  A
O18          V23   1.892       .  S
O19        C1036   1.264       .  A
O19          V24   1.900       .  S
O20        C1035   1.265       .  A
O20          V24   1.900       .  S
O21          C26   1.265       .  A
O21          V24   1.898       .  S
O22          C25   1.267       .  A
O22        V1032   1.904   1_455  S
V23        O1024   1.897   1_455  S
V23        V1032   2.085   1_455  T
V24        O1030   1.902       .  S
V24        V1031   2.085       .  T
C25         C422   1.489       .  S
C26         C408   1.486       .  S
C27        O1028   1.265   1_455  A
C27         C436   1.481       .  S
C28        O1027   1.264   1_455  A
C28         C394   1.474       .  S
O29          C39   1.264       .  A
O29          V37   1.896       .  S
O30          C40   1.264       .  A
O30         V541   1.897       .  S
O31          C41   1.264       .  A
O31          V37   1.896       .  S
O32          C42   1.264       .  A
O32          V37   1.895       .  S
O33         C546   1.264       .  A
O33          V38   1.895       .  S
O34         C545   1.263       .  A
O34          V38   1.897       .  S
O35          C40   1.267       .  A
O35          V38   1.902       .  S
O36          C39   1.266       .  A
O36         V542   1.900   1_545  S
V37         O534   1.896   1_545  S
V37         V542   2.085   1_545  T
V38         O540   1.901       .  S
V38         V541   2.084       .  T
C39         C411   1.486       .  S
C40         C425   1.489       .  S
C41         O538   1.264   1_545  A
C41         C870   1.477       .  S
C42         O537   1.264   1_545  A
C42         C887   1.477       .  S
O43          C53   1.265       .  A
O43          V51   1.902       .  S
O44          C54   1.266       .  A
O44          V51   1.903       .  S
O45          C55   1.264       .  A
O45          V51   1.895       .  S
O46          C56   1.262       .  A
O46          V51   1.895       .  S
O47          C56   1.264       .  A
O47          V52   1.894       .  S
O48          C55   1.264       .  A
O48          V52   1.895       .  S
O49          C54   1.264       .  A
O49          V52   1.897       .  S
O50          C53   1.264       .  A
O50          V52   1.896       .  S
V51          V52   2.085       .  T
C53         C478   1.484       .  S
C54         C464   1.487       .  S
C55         C338   1.480       .  S
C56         C352   1.474       .  S
O57         C571   1.262   1_556  A
O57        V1073   1.893   1_556  S
O58         C572   1.262       .  A
O58          V65   1.894       .  S
O59          C69   1.265       .  A
O59          V65   1.898       .  S
O60          C70   1.264   1_455  A
O60          V65   1.899   1_554  S
O61        C1582   1.264       .  A
O61          V66   1.894   1_554  S
O62        C1581   1.263       .  A
O62          V66   1.897       .  S
O63          C68   1.264       .  A
O63        V1074   1.892   1_455  S
O64          C67   1.265       .  A
O64          V66   1.894   1_554  S
V65        O1065   1.893   1_455  S
V65        V1578   2.085   1_445  T
V66        O1071   1.897       .  S
V66        V1577   2.084       .  T
C67         O561   1.261   1_554  A
C67         C296   1.479       .  S
C68         O562   1.262       .  A
C68         C310   1.481   1_556  S
C69        O1574   1.263   1_445  A
C69         C324   1.478       .  S
C70        O1573   1.263   1_545  A
C70         C492   1.477       .  S
O71          C81   1.264       .  A
O71          V79   1.894       .  S
O72          C82   1.263       .  A
O72          V79   1.896   1_554  S
O73          C83   1.265       .  A
O73          V79   1.894   1_554  S
O74          C84   1.263       .  A
O74        V1087   1.891       .  S
O75          C84   1.265       .  A
O75          V80   1.894       .  S
O76          C83   1.263   1_556  A
O76        V1088   1.893   1_455  S
O77        C1090   1.264       .  A
O77          V80   1.897   1_554  S
O78        C1089   1.263       .  A
O78          V80   1.897       .  S
V79        O1082   1.892   1_455  S
V79        V1088   2.084   1_455  T
V80        O1084   1.894       .  S
V80        V1087   2.085       .  T
C81        O1086   1.263   1_455  A
C81         C282   1.480       .  S
C82        O1085   1.264   1_455  A
C82         C439   1.471       .  S
C83         C271   1.482       .  S
C84         C254   1.480       .  S
O85          C95   1.262       .  A
O85          V93   1.890       .  S
O86          C96   1.261       .  A
O86          V93   1.889       .  S
O87          C97   1.265       .  A
O87          V93   1.901   1_556  S
O88          C98   1.265       .  A
O88          V93   1.898       .  S
O89         C602   1.264       .  A
O89          V94   1.895   1_554  S
O90         C601   1.263       .  A
O90          V94   1.895       .  S
O91         C600   1.265       .  A
O91          V94   1.897       .  S
O92         C599   1.265   1_554  A
O92          V94   1.898   1_554  S
V93         V598   2.084       .  T
V94         V597   2.084   1_545  T
C95         O596   1.265       .  A
C95         C299   1.480       .  S
C96         O595   1.264       .  A
C96         C313   1.480       .  S
C97         O594   1.263       .  A
C97         C243   1.474       .  S
C98         O593   1.263       .  A
C98         C380   1.476       .  S
O99         C109   1.264   1_554  A
O99         V107   1.893   1_554  S
O100        C110   1.264   1_556  A
O100        V107   1.895       .  S
O101        C111   1.263       .  A
O101        V107   1.892   1_554  S
O102        C112   1.263       .  A
O102        V107   1.892       .  S
O103        C112   1.265       .  A
O103        V108   1.898       .  S
O104        C111   1.265       .  A
O104        V108   1.898   1_554  S
O105        C110   1.264       .  A
O105        V108   1.892   1_554  S
O106        C109   1.263       .  A
O106        V108   1.892       .  S
V107        V108   2.085       .  T
C109        C257   1.480       .  S
C110        C268   1.482       .  S
C111        C355   1.478       .  S
C112        C226   1.476       .  S
O113        C123   1.266       .  A
O113        V625   1.901       .  S
O114        C124   1.266       .  A
O114        V121   1.903       .  S
O115        C125   1.263       .  A
O115        V121   1.895       .  S
O116        C126   1.263       .  A
O116        V121   1.895       .  S
O117       C1638   1.265       .  A
O117        V122   1.898       .  S
O118       C1637   1.266       .  A
O118        V122   1.901       .  S
O119       C1132   1.265       .  A
O119        V626   1.896   1_545  S
O120       C1131   1.264       .  A
O120        V122   1.898       .  S
V121        O617   1.902   1_545  S
V121       V1634   2.084   1_445  T
V122        O623   1.899       .  S
V122       V1633   2.085       .  T
C123       O1128   1.264   1_455  A
C123        C201   1.489       .  S
C124       O1127   1.264   1_455  A
C124        C212   1.486       .  S
C125       O1630   1.264   1_445  A
C125        C327   1.472       .  S
C126       O1629   1.264   1_445  A
C126        C453   1.470       .  S
O127       C1145   1.266       .  A
O127        V135   1.900       .  S
O128       C1146   1.265       .  A
O128        V135   1.899       .  S
O129        C139   1.265       .  A
O129        V135   1.898       .  S
O130        C140   1.264       .  A
O130        V135   1.900       .  S
O131       C1148   1.264   1_455  A
O131        V136   1.894       .  S
O132       C1147   1.264       .  A
O132        V136   1.896       .  S
O133        C138   1.264       .  A
O133        V136   1.896       .  S
O134        C137   1.264       .  A
O134        V136   1.896       .  S
V135       V1144   2.084       .  T
V136       V1143   2.085   1_455  T
C137       O1135   1.266   1_455  A
C137        C198   1.489       .  S
C138       O1136   1.265   1_455  A
C138        C215   1.485       .  S
C139       O1140   1.263       .  A
C139        C285   1.481       .  S
C140       O1139   1.264       .  A
C140        C397   1.480       .  S
O141        C655   1.262   1_545  A
O141        V149   1.891       .  S
O142        C656   1.263       .  A
O142        V149   1.893       .  S
O143        C153   1.266       .  A
O143        V149   1.903       .  S
O144        C154   1.264       .  A
O144        V653   1.900       .  S
O145        C154   1.266       .  A
O145        V150   1.899       .  S
O146        C153   1.264       .  A
O146        V654   1.895   1_545  S
O147        C152   1.264       .  A
O147        V150   1.896       .  S
O148        C151   1.264       .  A
O148        V150   1.898       .  S
V149        O648   1.904   1_545  S
V149        V654   2.085   1_545  T
V150        O650   1.902       .  S
V150        V653   2.084       .  T
C151        O645   1.264       .  A
C151        C240   1.482       .  S
C152        O646   1.264       .  A
C152        C369   1.479       .  S
C153        C184   1.486       .  S
C154        C170   1.490       .  S
O155        C165   1.263       .  A
O155        V163   1.894       .  S
O156        C166   1.264       .  A
O156        V163   1.896       .  S
O157        C167   1.265       .  A
O157        V163   1.895       .  S
O158        C168   1.264       .  A
O158        V163   1.895       .  S
O159        C168   1.266       .  A
O159        V164   1.903       .  S
O160        C167   1.265       .  A
O160        V164   1.901       .  S
O161        C166   1.264       .  A
O161        V164   1.895       .  S
O162        C165   1.264       .  A
O162        V164   1.896       .  S
V163        V164   2.084       .  T
C165        C229   1.476       .  S
C166        C341   1.473       .  S
C167        C187   1.487       .  S
C168        C173   1.490       .  S
C169        C170   1.405       .  A
C169        C174   1.405       .  A
C169        H176   1.083       .  S
C170        C171   1.416       .  A
C171        C172   1.407       .  A
C171        N178   1.438       .  S
C172        C173   1.406       .  A
C172        H177   1.083       .  S
C173        C174   1.416       .  A
C174        N175   1.438       .  S
N175        H179   1.046       .  S
N175        H180   1.045       .  S
N178        H181   1.046       .  S
N178        H182   1.046       .  S
C183        C184   1.405       .  A
C183        C188   1.407       .  A
C183        H190   1.083       .  S
C184        C185   1.415       .  A
C185        C186   1.403       .  A
C185        N192   1.439       .  S
C186        C187   1.405       .  A
C186        H191   1.083       .  S
C187        C188   1.415       .  A
C188        N189   1.438       .  S
N189        H193   1.046       .  S
N189        H194   1.046       .  S
N192        H195   1.046       .  S
N192        H196   1.046       .  S
C197        C202   1.403       .  A
C197       C1206   1.406       .  A
C197        H204   1.084       .  S
C198        C199   1.414       .  A
C198       C1205   1.406   1_455  A
C199        C200   1.403       .  A
C199        N206   1.433       .  S
C200        C201   1.405       .  A
C200        H205   1.084       .  S
C201       C1210   1.414   1_455  A
C202       C1209   1.414       .  A
C202        N203   1.433       .  S
N203        H207   1.046       .  S
N203        H208   1.046       .  S
N206        H209   1.046       .  S
N206        H210   1.046       .  S
C211        C216   1.404       .  A
C211       C1220   1.406       .  A
C211        H218   1.083       .  S
C212        C213   1.412       .  A
C212       C1219   1.406   1_455  A
C213        C214   1.404       .  A
C213        N220   1.432       .  S
C214        C215   1.407       .  A
C214        H219   1.084       .  S
C215       C1224   1.411   1_455  A
C216       C1223   1.415       .  A
C216        N217   1.438       .  S
N217        H221   1.046       .  S
N217        H222   1.046       .  S
N220        H223   1.046       .  S
N220        H224   1.046       .  S
C225        C226   1.402       .  A
C225        C230   1.401       .  A
C225        H232   1.084       .  S
C226        C227   1.411       .  A
C227        C228   1.401       .  A
C227        N234   1.433       .  S
C228        C229   1.403       .  A
C228        H233   1.084       .  S
C229        C230   1.411       .  A
C230        N231   1.433       .  S
N231        H235   1.046       .  S
N231        H236   1.046       .  S
N234        H237   1.046       .  S
N234        H238   1.046       .  S
C239        C244   1.400       .  A
C239        C744   1.402   1_545  A
C239        H246   1.084       .  S
C240        C241   1.413       .  A
C240        C743   1.405       .  A
C241        C242   1.403       .  A
C241        N248   1.432       .  S
C242        C243   1.402       .  A
C242        H247   1.084       .  S
C243        C748   1.411       .  A
C244        C747   1.412       .  A
C244        N245   1.433       .  S
N245        H249   1.046       .  S
N245        H250   1.046       .  S
N248        H251   1.046       .  S
N248        H252   1.046       .  S
C253        C254   1.404       .  A
C253        C258   1.400       .  A
C253        H260   1.084   1_556  S
C254        C255   1.412       .  A
C255        C256   1.399       .  A
C255        N262   1.433       .  S
C256        C257   1.404       .  A
C256        H261   1.084       .  S
C257        C258   1.412       .  A
C258        N259   1.433   1_556  S
N259        H263   1.046       .  S
N259        H264   1.046   1_554  S
N262        H265   1.046   1_556  S
N262        H266   1.046       .  S
C267        C268   1.405       .  A
C267        C272   1.398       .  A
C267        H274   1.084   1_554  S
C268        C269   1.415       .  A
C269        C270   1.404       .  A
C269        N276   1.438       .  S
C270        C271   1.405       .  A
C270        H275   1.083       .  S
C271        C272   1.411       .  A
C272        N273   1.433   1_554  S
N273        H277   1.046   1_556  S
N273        H278   1.046       .  S
N276        H279   1.046       .  S
N276        H280   1.046       .  S
C281        C282   1.405       .  A
C281        C286   1.403       .  A
C281        H288   1.084       .  S
C282       C1291   1.417   1_455  A
C283        C284   1.397       .  A
C283       C1290   1.414       .  A
C283        N290   1.433       .  S
C284        C285   1.405       .  A
C284        H289   1.084       .  S
C285       C1294   1.415       .  A
C286       C1293   1.412       .  A
C286        N287   1.438       .  S
N287        H291   1.046       .  S
N287        H292   1.046       .  S
N290        H293   1.046       .  S
N290        H294   1.045       .  S
C295        C296   1.404   1_556  A
C295        C300   1.396       .  A
C295        H302   1.084       .  S
C296        C801   1.417       .  A
C297        C298   1.398       .  A
C297        C800   1.419   1_556  A
C297        N304   1.433       .  S
C298        C803   1.405       .  A
C298        H303   1.084       .  S
C299        C300   1.418   1_554  A
C299        C802   1.404       .  A
C300        N301   1.433       .  S
N301        H305   1.045       .  S
N301        H306   1.045   1_556  S
N304        H307   1.046       .  S
N304        H308   1.045   1_556  S
C309        C310   1.405       .  A
C309        C314   1.394       .  A
C309        H316   1.084   1_554  S
C310        C815   1.418       .  A
C311        C312   1.397       .  A
C311        C814   1.417       .  A
C311        N318   1.433       .  S
C312        C817   1.405       .  A
C312        H317   1.084       .  S
C313        C314   1.418       .  A
C313        C816   1.404       .  A
C314        N315   1.433       .  S
N315        H319   1.045       .  S
N315        H320   1.046   1_554  S
N318        H321   1.044       .  S
N318        H322   1.046       .  S
C323        C328   1.401       .  A
C323       C1332   1.403   1_545  A
C323        H330   1.084       .  S
C324       C1331   1.405       .  A
C324        C829   1.412   1_445  A
C325        C326   1.401       .  A
C325        C828   1.409   1_655  A
C325        N332   1.433       .  S
C326        C831   1.404   1_655  A
C326        H331   1.084       .  S
C327        C830   1.401   1_445  A
C327       C1336   1.409       .  A
C328       C1335   1.410       .  A
C328        N329   1.433       .  S
N329        H333   1.046       .  S
N329        H334   1.046       .  S
N332        H335   1.046       .  S
N332        H336   1.046       .  S
C337        C338   1.406       .  A
C337        C342   1.405       .  A
C337        H344   1.084       .  S
C338        C339   1.411       .  A
C339        C340   1.400       .  A
C339        N346   1.433       .  S
C340        C341   1.402       .  A
C340        H345   1.084       .  S
C341        C342   1.411       .  A
C342        N343   1.438       .  S
N343        H347   1.046       .  S
N343        H348   1.046       .  S
N346        H349   1.046       .  S
N346        H350   1.046       .  S
C351        C352   1.402       .  A
C351        C356   1.403       .  A
C351        H358   1.084       .  S
C352        C353   1.414       .  A
C353        C354   1.397       .  A
C353        N360   1.433       .  S
C354        C355   1.404       .  A
C354        H359   1.084       .  S
C355        C356   1.414       .  A
C356        N357   1.438       .  S
N357        H361   1.045       .  S
N357        H362   1.046       .  S
N360        H363   1.046       .  S
N360        H364   1.044       .  S
C365        C370   1.402       .  A
C365        C870   1.404       .  A
C365        H372   1.084       .  S
C366        C545   1.473       .  S
C366        C367   1.408       .  A
C366        C869   1.402       .  A
C367        C368   1.402       .  A
C367        N374   1.433       .  S
C368        C369   1.406       .  A
C368        H373   1.084       .  S
C369        C874   1.411       .  A
C370        C873   1.410       .  A
C370        N371   1.433       .  S
N371        H375   1.046   1_545  S
N371        H376   1.046       .  S
N374        H377   1.046       .  S
N374        H378   1.046       .  S
C379        C384   1.401       .  A
C379        C884   1.403       .  A
C379        H386   1.084       .  S
C380        C381   1.410       .  A
C380        C883   1.404       .  A
C381        C382   1.401       .  A
C381        N388   1.433       .  S
C382        C383   1.404       .  A
C382        H387   1.084       .  S
C383        C546   1.476       .  S
C383        C888   1.410       .  A
C384        C887   1.410       .  A
C384        N385   1.433       .  S
N385        H389   1.046       .  S
N385        H390   1.046       .  S
N388        H391   1.046       .  S
N388        H392   1.046       .  S
C393        C398   1.407       .  A
C393       C1402   1.403       .  A
C393        H400   1.084       .  S
C394        C395   1.408       .  A
C394       C1401   1.403   1_455  A
C395        C396   1.399       .  A
C395        N402   1.433       .  S
C396       C1405   1.403   1_455  A
C396        H401   1.084       .  S
C397        C398   1.415       .  A
C397       C1404   1.404       .  A
C398        N399   1.438       .  S
N399        H403   1.045       .  S
N399        H404   1.046       .  S
N402        H405   1.046       .  S
N402        H406   1.046       .  S
C407        C408   1.405       .  A
C407        C412   1.402       .  A
C407        H414   1.084       .  S
C408        C409   1.413       .  A
C409        C410   1.403       .  A
C409        N416   1.433       .  S
C410        C411   1.405       .  A
C410        H415   1.084       .  S
C411        C412   1.413       .  A
C412        N413   1.433       .  S
N413        H417   1.046       .  S
N413        H418   1.046       .  S
N416        H419   1.046       .  S
N416        H420   1.046       .  S
C421        C422   1.405       .  A
C421        C426   1.404       .  A
C421        H428   1.084       .  S
C422        C423   1.414       .  A
C423        C424   1.403       .  A
C423        N430   1.433       .  S
C424        C425   1.405       .  A
C424        H429   1.084       .  S
C425        C426   1.414       .  A
C426        N427   1.433       .  S
N427        H431   1.046       .  S
N427        H432   1.046       .  S
N430        H433   1.046       .  S
N430        H434   1.046       .  S
C435        C440   1.403       .  A
C435       C1444   1.407       .  A
C435        H442   1.084       .  S
C436        C437   1.413       .  A
C436       C1443   1.407   1_455  A
C437        C438   1.398       .  A
C437        N444   1.433       .  S
C438        C439   1.399       .  A
C438        H443   1.084       .  S
C439       C1448   1.411   1_455  A
C440       C1447   1.407       .  A
C440        N441   1.433       .  S
N441        H445   1.045       .  S
N441        H446   1.046       .  S
N444        H447   1.046       .  S
N444        H448   1.046   1_455  S
C449        C454   1.399       .  A
C449        C954   1.406   1_655  A
C449        H456   1.084       .  S
C450        C953   1.403   1_455  A
C450       C1459   1.410       .  A
C451        C452   1.402       .  A
C451       C1458   1.410       .  A
C451        N458   1.433       .  S
C452       C1965   1.404       .  A
C452        H457   1.084       .  S
C453        C454   1.407   1_455  A
C453       C1964   1.402   1_545  A
C454        N455   1.433       .  S
N455        H459   1.045       .  S
N455        H460   1.046       .  S
N458        H461   1.046       .  S
N458        H462   1.046       .  S
C463        C464   1.404       .  A
C463        C468   1.406       .  A
C463        H470   1.083       .  S
C464        C465   1.415       .  A
C465        C466   1.407       .  A
C465        N472   1.438       .  S
C466        C467   1.405       .  A
C466        H471   1.083       .  S
C467        C468   1.416       .  A
C468        N469   1.438       .  S
N469        H473   1.046       .  S
N469        H474   1.045       .  S
N472        H475   1.046       .  S
N472        H476   1.045       .  S
C477        C478   1.405       .  A
C477        C482   1.402       .  A
C477        H484   1.084       .  S
C478        C479   1.412       .  A
C479        C480   1.404       .  A
C479        N486   1.433       .  S
C480        C481   1.407       .  A
C480        H485   1.084       .  S
C481        C482   1.412       .  A
C482        N483   1.432       .  S
N483        H487   1.046       .  S
N483        H488   1.046       .  S
N486        H489   1.046       .  S
N486        H490   1.046       .  S
C491        C496   1.400       .  A
C491        C996   1.403       .  A
C491        H498   1.084       .  S
C492        C995   1.404   1_645  A
C492       C1501   1.415       .  A
C493        C494   1.398       .  A
C493       C1500   1.414       .  A
C493        N500   1.433       .  S
C494       C1503   1.405   1_545  A
C494        H499   1.084       .  S
C495       C1502   1.405   1_565  A
C495       C1000   1.410   1_655  A
C496        C999   1.411       .  A
C496        N497   1.433       .  S
N497        H501   1.046       .  S
N497        H502   1.046   1_455  S
N500        H503   1.046       .  S
N500        H504   1.045       .  S
O505        C515   1.264       .  A
O505       V1521   1.898       .  S
O506        C516   1.265       .  A
O507        C517   1.264       .  A
O507        V513   1.898       .  S
O508        V513   1.898       .  S
O509       C1526   1.262       .  A
O509        V514   1.892       .  S
O510       C1021   1.263       .  A
O510        V514   1.890       .  S
O511        C516   1.264       .  A
O511       V1522   1.896   1_455  S
O512        C515   1.265       .  A
V513       O1513   1.896   1_455  S
V513       V1018   2.085   1_465  T
V514       O1519   1.902       .  S
V514       V1017   2.085       .  T
C515        C971   1.484       .  S
C516        C985   1.485       .  S
C517       O1014   1.263   1_465  A
C517        C954   1.480   1_565  S
C518       O1517   1.264   1_455  A
C518        C999   1.480       .  S
O519        C529   1.264       .  A
O519        V527   1.896       .  S
O520        C530   1.263       .  A
O520       V1535   1.895       .  S
O521        C531   1.263       .  A
O521        V527   1.893       .  S
O522        C532   1.263       .  A
O522        V527   1.893       .  S
O523       C1540   1.262       .  A
O523        V528   1.893       .  S
O524       C1539   1.264       .  A
O524        V528   1.894       .  S
O525        C530   1.266       .  A
O525        V528   1.902       .  S
O526        C529   1.266       .  A
O526       V1536   1.901   1_455  S
V527       O1528   1.897   1_455  S
V527       V1536   2.084   1_455  T
V528       O1534   1.904       .  S
V528       V1535   2.085       .  T
C529        C926   1.487       .  S
C530        C912   1.482       .  S
C531       O1532   1.265   1_455  A
C531        C940   1.483       .  S
C532       O1531   1.264   1_455  A
C532        C898   1.474       .  S
O533        C543   1.264       .  A
O533        V541   1.897       .  S
O534        C544   1.264       .  A
O535        C545   1.264       .  A
O535        V541   1.894       .  S
O536        C546   1.264       .  A
O536        V541   1.895       .  S
O537        V542   1.897       .  S
O538        V542   1.896       .  S
O539        C544   1.266       .  A
O539        V542   1.900       .  S
O540        C543   1.266       .  A
C543        C915   1.485       .  S
C544        C929   1.486       .  S
O547        C557   1.264       .  A
O547        V555   1.899       .  S
O548        C558   1.265       .  A
O548        V555   1.899       .  S
O549        C559   1.264       .  A
O549        V555   1.895       .  S
O550        C560   1.263       .  A
O550        V555   1.896       .  S
O551        C560   1.265       .  A
O551        V556   1.897       .  S
O552        C559   1.264       .  A
O552        V556   1.897       .  S
O553        C558   1.264       .  A
O553        V556   1.899       .  S
O554        C557   1.264       .  A
O554        V556   1.893       .  S
V555        V556   2.085       .  T
C557        C982   1.481       .  S
C558        C968   1.485       .  S
C559        C842   1.473       .  S
C560        C856   1.480       .  S
O561       V1577   1.888       .  S
O562        V569   1.890       .  S
O563        C573   1.265       .  A
O563        V569   1.898       .  S
O564        C574   1.264       .  A
O564        V569   1.898   1_554  S
O565       C1078   1.264       .  A
O565        V570   1.896       .  S
O566       C1077   1.263       .  A
O566        V570   1.895   1_556  S
O567        C572   1.264   1_565  A
O567       V1578   1.892   1_455  S
O568        C571   1.265   1_565  A
O568        V570   1.891       .  S
V569       O1569   1.892   1_455  S
V569       V1074   2.084   1_455  T
V570       O1575   1.896       .  S
V570       V1073   2.084   1_565  T
C571        C800   1.482       .  S
C572        C814   1.479       .  S
C573       O1070   1.263   1_455  A
C573        C828   1.475       .  S
C574       O1069   1.263   1_455  A
C574        C996   1.474       .  S
O575        C585   1.265       .  A
O575        V583   1.897   1_556  S
O576        C586   1.263   1_455  A
O576        V583   1.896       .  S
O577        C587   1.264       .  A
O577        V583   1.894       .  S
O578        C588   1.263   1_556  A
O578       V1591   1.892   1_556  S
O579        C588   1.265       .  A
O579        V584   1.895       .  S
O580        C587   1.263       .  A
O580       V1592   1.892   1_455  S
O581       C1594   1.264       .  A
O581        V584   1.897       .  S
O582       C1593   1.263       .  A
O582        V584   1.896   1_556  S
V583       O1586   1.891   1_454  S
V583       V1592   2.085   1_455  T
V584       O1588   1.897   1_554  S
V584       V1591   2.085       .  T
C585       O1590   1.262   1_455  A
C585        C786   1.483       .  S
C586       O1589   1.263       .  A
C586        C943   1.468       .  S
C587        C775   1.481       .  S
C588        C758   1.478       .  S
O589        C599   1.261   1_565  A
O589        V597   1.886       .  S
O590        C600   1.261   1_564  A
O590        V597   1.889   1_554  S
O591        C601   1.264   1_565  A
O591        V597   1.895       .  S
O592        C602   1.264   1_565  A
O592        V597   1.896   1_554  S
O593        V598   1.892       .  S
O594        V598   1.892   1_556  S
O595        V598   1.891       .  S
O596        V598   1.891       .  S
C599        C803   1.482       .  S
C600        C817   1.481       .  S
C601        C747   1.479       .  S
C602        C884   1.476       .  S
O603        C613   1.264       .  A
O603        V611   1.895       .  S
O604        C614   1.263   1_556  A
O604        V611   1.894       .  S
O605        C615   1.263       .  A
O605        V611   1.894   1_554  S
O606        C616   1.263       .  A
O606        V611   1.894       .  S
O607        C616   1.264       .  A
O607        V612   1.897       .  S
O608        C615   1.264       .  A
O608        V612   1.898   1_554  S
O609        C614   1.264       .  A
O609        V612   1.892   1_554  S
O610        C613   1.263       .  A
O610        V612   1.893       .  S
V611        V612   2.085       .  T
C613        C761   1.481       .  S
C614        C772   1.480       .  S
C615        C859   1.478       .  S
C616        C730   1.476       .  S
O617        C627   1.267       .  A
O618        C628   1.265       .  A
O618        V625   1.902       .  S
O619        C629   1.263       .  A
O619        V625   1.893       .  S
O620        C630   1.264       .  A
O620        V625   1.895       .  S
O621       C1134   1.264   1_565  A
O621        V626   1.897       .  S
O622       C1133   1.264   1_565  A
O622        V626   1.897       .  S
O623       C1636   1.264       .  A
O624       C1635   1.264       .  A
O624        V626   1.897       .  S
V625       V1130   2.085   1_455  T
V626       V1129   2.085   1_565  T
C627       O1632   1.264   1_455  A
C627        C705   1.488       .  S
C628       O1631   1.265   1_455  A
C628        C716   1.486       .  S
C629       O1126   1.264   1_455  A
C629        C831   1.478       .  S
C630       O1125   1.264   1_455  A
C630        C957   1.476       .  S
O631       C1649   1.266       .  A
O631        V639   1.903       .  S
O632       C1650   1.266       .  A
O632        V639   1.905       .  S
O633        C643   1.266       .  A
O633        V639   1.904       .  S
O634        C644   1.265       .  A
O634        V639   1.901       .  S
O635       C1652   1.264       .  A
O635        V640   1.895       .  S
O636       C1651   1.263       .  A
O636        V640   1.895       .  S
O637        C642   1.266       .  A
O637        V640   1.901       .  S
O638        C641   1.264       .  A
O638        V640   1.897       .  S
V639       V1648   2.085       .  T
V640       V1647   2.085   1_455  T
C641       O1639   1.266   1_455  A
C641        C702   1.487       .  S
C642       O1640   1.265   1_455  A
C642        C719   1.487       .  S
C643       O1644   1.262       .  A
C643        C789   1.483       .  S
C644       O1643   1.262       .  A
C644        C901   1.477       .  S
O645        V653   1.894       .  S
O646        V653   1.895       .  S
O647        C657   1.266       .  A
O647        V653   1.899       .  S
O648        C658   1.266       .  A
O649        C658   1.264       .  A
O649        V654   1.897       .  S
O650        C657   1.265       .  A
O651        C656   1.265   1_565  A
O651        V654   1.899       .  S
O652        C655   1.264       .  A
O652        V654   1.898       .  S
C655        C744   1.471       .  S
C656        C873   1.477       .  S
C657        C688   1.486       .  S
C658        C674   1.489       .  S
O659        C669   1.265       .  A
O659        V667   1.901       .  S
O660        C670   1.265       .  A
O660        V667   1.903       .  S
O661        C671   1.266       .  A
O661        V667   1.906       .  S
O662        C672   1.266       .  A
O662        V667   1.906       .  S
O663        C672   1.264       .  A
O663        V668   1.895       .  S
O664        C671   1.264       .  A
O664        V668   1.895       .  S
O665        C670   1.263       .  A
O665        V668   1.889       .  S
O666        C669   1.262       .  A
O666        V668   1.888       .  S
V667        V668   2.085       .  T
C669        C733   1.475       .  S
C670        C845   1.482       .  S
C671        C691   1.487       .  S
C672        C677   1.488       .  S
C673        C674   1.408       .  A
C673        C678   1.405       .  A
C673        H680   1.084       .  S
C674        C675   1.412       .  A
C675        C676   1.403       .  A
C675        N682   1.432       .  S
C676        C677   1.406       .  A
C676        H681   1.084       .  S
C677        C678   1.412       .  A
C678        N679   1.432       .  S
N679        H683   1.046       .  S
N679        H684   1.046       .  S
N682        H685   1.046       .  S
N682        H686   1.046       .  S
C687        C688   1.404       .  A
C687        C692   1.405       .  A
C687        H694   1.083       .  S
C688        C689   1.412       .  A
C689        C690   1.406       .  A
C689        N696   1.432       .  S
C690        C691   1.406       .  A
C690        H695   1.084       .  S
C691        C692   1.415       .  A
C692        N693   1.438       .  S
N693        H697   1.046       .  S
N693        H698   1.045       .  S
N696        H699   1.045       .  S
N696        H700   1.046       .  S
C701       C1710   1.406       .  A
C701        C706   1.404       .  A
C701        H708   1.084       .  S
C702       C1709   1.405   1_455  A
C702        C703   1.413       .  A
C703        C704   1.402       .  A
C703        N710   1.432       .  S
C704        C705   1.405       .  A
C704        H709   1.084       .  S
C705       C1714   1.414   1_455  A
C706       C1713   1.414       .  A
C706        N707   1.433       .  S
N707        H711   1.046       .  S
N707        H712   1.046       .  S
N710        H713   1.046       .  S
N710        H714   1.046       .  S
C715       C1724   1.406       .  A
C715        C720   1.408       .  A
C715        H722   1.084       .  S
C716       C1723   1.405   1_455  A
C716        C717   1.412       .  A
C717        C718   1.405       .  A
C717        N724   1.433       .  S
C718        C719   1.406       .  A
C718        H723   1.084       .  S
C719       C1728   1.413   1_455  A
C720       C1727   1.414       .  A
C720        N721   1.438       .  S
N721        H725   1.046       .  S
N721        H726   1.046       .  S
N724        H727   1.046       .  S
N724        H728   1.046       .  S
C729        C730   1.404       .  A
C729        C734   1.402       .  A
C729        H736   1.084       .  S
C730        C731   1.409       .  A
C731        C732   1.400       .  A
C731        N738   1.433       .  S
C732        C733   1.404       .  A
C732        H737   1.084       .  S
C733        C734   1.409       .  A
C734        N735   1.432       .  S
N735        H739   1.046       .  S
N735        H740   1.046       .  S
N738        H741   1.046       .  S
N738        H742   1.046       .  S
C743        C748   1.402       .  A
C743        H750   1.083       .  S
C744        C745   1.407       .  A
C745        C746   1.401       .  A
C745        N752   1.433       .  S
C746        C747   1.405   1_565  A
C746        H751   1.084       .  S
C748        N749   1.438       .  S
N749        H753   1.046       .  S
N749        H754   1.046       .  S
N752        H755   1.045       .  S
N752        H756   1.046       .  S
C757        C758   1.403   1_556  A
C757        C762   1.403       .  A
C757        H764   1.083       .  S
C758        C759   1.410       .  A
C759        C760   1.400       .  A
C759        N766   1.433       .  S
C760        C761   1.405   1_554  A
C760        H765   1.084       .  S
C761        C762   1.415       .  A
C762        N763   1.438       .  S
N763        H767   1.045       .  S
N763        H768   1.046       .  S
N766        H769   1.046       .  S
N766        H770   1.046   1_554  S
C771        C772   1.405       .  A
C771        C776   1.399       .  A
C771        H778   1.084       .  S
C772        C773   1.412       .  A
C773        C774   1.400       .  A
C773        N780   1.433       .  S
C774        C775   1.405       .  A
C774        H779   1.084       .  S
C775        C776   1.412       .  A
C776        N777   1.433       .  S
N777        H781   1.046       .  S
N777        H782   1.046   1_554  S
N780        H783   1.046       .  S
N780        H784   1.046   1_554  S
C785        C786   1.407       .  A
C785        C790   1.404       .  A
C785        H792   1.083       .  S
C786       C1795   1.419   1_455  A
C787       C1794   1.414       .  A
C787        C788   1.399       .  A
C787        N794   1.433       .  S
C788        C789   1.405       .  A
C788        H793   1.084       .  S
C789       C1798   1.417       .  A
C790       C1797   1.409       .  A
C790        N791   1.438       .  S
N791        H795   1.045       .  S
N791        H796   1.046       .  S
N794        H797   1.046       .  S
N794        H798   1.045       .  S
C799        C800   1.404   1_565  A
C799        C804   1.392       .  A
C799        H806   1.084       .  S
C801        C802   1.393       .  A
C801        N808   1.433       .  S
C802        H807   1.084       .  S
C803        C804   1.418   1_546  A
C804        N805   1.433       .  S
N805        H809   1.045   1_554  S
N805        H810   1.045       .  S
N808        H811   1.045   1_554  S
N808        H812   1.045       .  S
C813        C814   1.403   1_564  A
C813        C818   1.394       .  A
C813        H820   1.084       .  S
C815        C816   1.394       .  A
C815        N822   1.433       .  S
C816        H821   1.084       .  S
C817        C818   1.418   1_546  A
C818        N819   1.433       .  S
N819        H823   1.045       .  S
N819        H824   1.045   1_554  S
N822        H825   1.044       .  S
N822        H826   1.046   1_554  S
C827       C1836   1.399       .  A
C827        C832   1.400       .  A
C827        H834   1.084       .  S
C828       C1835   1.402       .  A
C829        C830   1.400       .  A
C829        N836   1.433       .  S
C830        H835   1.084       .  S
C831       C1840   1.415       .  A
C832       C1839   1.415       .  A
C832        N833   1.433       .  S
N833        H837   1.046       .  S
N833        H838   1.046       .  S
N836        H839   1.046       .  S
N836        H840   1.046       .  S
C841        C842   1.403       .  A
C841        C846   1.407       .  A
C841        H848   1.084       .  S
C842        C843   1.405       .  A
C843        C844   1.398       .  A
C843        N850   1.433       .  S
C844        C845   1.406       .  A
C844        H849   1.084       .  S
C845        C846   1.416       .  A
C846        N847   1.438       .  S
N847        H851   1.046       .  S
N847        H852   1.046       .  S
N850        H853   1.045       .  S
N850        H854   1.046       .  S
C855        C856   1.404       .  A
C855        C860   1.403       .  A
C855        H862   1.084       .  S
C856        C857   1.417       .  A
C857        C858   1.398       .  A
C857        N864   1.433       .  S
C858        C859   1.403       .  A
C858        H863   1.084       .  S
C859        C860   1.413       .  A
C860        N861   1.438       .  S
N861        H865   1.046       .  S
N861        H866   1.046       .  S
N864        H867   1.046       .  S
N864        H868   1.045       .  S
C869        C874   1.400       .  A
C869        H876   1.084       .  S
C870        C871   1.410       .  A
C871        C872   1.401       .  A
C871        N878   1.433       .  S
C872        C873   1.404       .  A
C872        H877   1.084       .  S
C874        N875   1.432       .  S
N875        H879   1.046       .  S
N875        H880   1.046       .  S
N878        H881   1.046   1_545  S
N878        H882   1.046       .  S
C883        C888   1.401       .  A
C883        H890   1.084       .  S
C884        C885   1.410   1_545  A
C885        C886   1.402       .  A
C885        N892   1.433       .  S
C886        C887   1.404   1_565  A
C886        H891   1.084       .  S
C888        N889   1.433       .  S
N889        H893   1.046       .  S
N889        H894   1.046       .  S
N892        H895   1.046       .  S
N892        H896   1.046       .  S
C897       C1906   1.405       .  A
C897        C902   1.406       .  A
C897        H904   1.084       .  S
C898       C1905   1.402   1_455  A
C898        C899   1.408       .  A
C899        C900   1.399       .  A
C899        N906   1.433       .  S
C900       C1909   1.404       .  A
C900        H905   1.084       .  S
C901       C1908   1.404       .  A
C901        C902   1.413       .  A
C902        N903   1.438       .  S
N903        H907   1.046       .  S
N903        H908   1.046       .  S
N906        H909   1.046       .  S
N906        H910   1.046       .  S
C911        C912   1.403       .  A
C911        C916   1.402       .  A
C911        H918   1.084       .  S
C912        C913   1.415       .  A
C913        C914   1.406       .  A
C913        N920   1.438       .  S
C914        C915   1.405       .  A
C914        H919   1.083       .  S
C915        C916   1.412       .  A
C916        N917   1.433       .  S
N917        H921   1.046       .  S
N917        H922   1.046       .  S
N920        H923   1.046       .  S
N920        H924   1.045       .  S
C925        C926   1.405       .  A
C925        C930   1.403       .  A
C925        H932   1.084       .  S
C926        C927   1.414       .  A
C927        C928   1.403       .  A
C927        N934   1.433       .  S
C928        C929   1.405       .  A
C928        H933   1.084       .  S
C929        C930   1.413       .  A
C930        N931   1.433       .  S
N931        H935   1.046       .  S
N931        H936   1.046       .  S
N934        H937   1.046       .  S
N934        H938   1.046       .  S
C939       C1948   1.406       .  A
C939        C944   1.404       .  A
C939        H946   1.083       .  S
C940       C1947   1.407   1_455  A
C940        C941   1.414       .  A
C941        C942   1.399       .  A
C941        N948   1.433       .  S
C942        C943   1.399   1_455  A
C942        H947   1.084       .  S
C943       C1952   1.409       .  A
C944       C1951   1.410       .  A
C944        N945   1.438       .  S
N945        H949   1.045       .  S
N945        H950   1.046       .  S
N948        H951   1.046       .  S
N948        H952   1.046       .  S
C953        C958   1.400       .  A
C953        H960   1.084       .  S
C954       C1963   1.413   1_545  A
C955       C1962   1.408       .  A
C955        C956   1.400       .  A
C955        N962   1.433       .  S
C956       C1461   1.405       .  A
C956        H961   1.084       .  S
C957       C1460   1.404       .  A
C957        C958   1.410   1_455  A
C958        N959   1.433       .  S
N959        H963   1.046       .  S
N959        H964   1.046       .  S
N962        H965   1.046   1_545  S
N962        H966   1.046       .  S
C967        C968   1.405       .  A
C967        C972   1.403       .  A
C967        H974   1.084       .  S
C968        C969   1.413       .  A
C969        C970   1.404       .  A
C969        N976   1.433       .  S
C970        C971   1.405       .  A
C970        H975   1.084       .  S
C971        C972   1.412       .  A
C972        N973   1.433       .  S
N973        H977   1.046       .  S
N973        H978   1.046       .  S
N976        H979   1.046       .  S
N976        H980   1.046       .  S
C981        C982   1.404       .  A
C981        C986   1.403       .  A
C981        H988   1.084       .  S
C982        C983   1.410       .  A
C983        C984   1.402       .  A
C983        N990   1.433       .  S
C984        C985   1.406       .  A
C984        H989   1.084       .  S
C985        C986   1.416       .  A
C986        N987   1.438       .  S
N987        H991   1.046       .  S
N987        H992   1.046       .  S
N990        H993   1.046       .  S
N990        H994   1.046       .  S
C995       C1000   1.401       .  A
C995       H1002   1.084       .  S
C996       C2005   1.414   1_455  A
C997       C2004   1.417       .  A
C997        C998   1.397       .  A
C997       N1004   1.433       .  S
C998       C2007   1.403       .  A
C998       H1003   1.084       .  S
C999       C2006   1.406   1_455  A
C1000      N1001   1.433       .  S
N1001      H1005   1.046       .  S
N1001      H1006   1.046   1_455  S
N1004      H1007   1.045       .  S
N1004      H1008   1.045       .  S
O1009      C1019   1.265       .  A
O1010      C1020   1.265       .  A
O1010      V1521   1.898   1_545  S
O1011      C1021   1.265       .  A
O1011      V1017   1.900       .  S
O1012      C1526   1.265       .  A
O1012      V1017   1.898       .  S
O1013      V1018   1.895       .  S
O1014      V1018   1.891       .  S
O1015      C1020   1.266       .  A
O1016      C1019   1.265       .  A
O1016      V1522   1.899       .  S
V1017      O1514   1.898       .  S
V1018      O1520   1.905   1_545  S
C1019      C1475   1.489       .  S
C1020      C1489   1.490       .  S
C1021      C1458   1.477       .  S
C1022      O1516   1.263   1_545  A
C1022      C1503   1.480   1_545  S
O1023      C1033   1.264       .  A
O1023      V1031   1.897       .  S
O1024      C1034   1.264       .  A
O1025      C1035   1.263       .  A
O1025      V1031   1.892       .  S
O1026      C1036   1.263       .  A
O1026      V1031   1.891       .  S
O1027      V1032   1.898       .  S
O1028      V1032   1.901       .  S
O1029      C1034   1.266       .  A
O1029      V1032   1.902       .  S
O1030      C1033   1.266       .  A
C1033      C1430   1.487       .  S
C1034      C1416   1.486       .  S
C1035      C1444   1.483       .  S
C1036      C1402   1.473       .  S
O1037      C1047   1.264       .  A
O1037      V1045   1.897       .  S
O1038      C1048   1.264       .  A
O1038      V1549   1.899       .  S
O1039      C1049   1.263       .  A
O1039      V1045   1.895       .  S
O1040      C1050   1.264       .  A
O1040      V1045   1.895       .  S
O1041      C1554   1.263       .  A
O1041      V1046   1.894       .  S
O1042      C1553   1.263       .  A
O1042      V1046   1.894       .  S
O1043      C1048   1.266       .  A
O1043      V1046   1.900       .  S
O1044      C1047   1.266       .  A
O1044      V1550   1.902   1_545  S
V1045      O1542   1.896   1_545  S
V1045      V1550   2.085   1_545  T
V1046      O1548   1.899       .  S
V1046      V1549   2.084       .  T
C1047      C1419   1.486       .  S
C1048      C1433   1.488       .  S
C1049      O1546   1.264   1_545  A
C1049      C1878   1.473       .  S
C1050      O1545   1.264   1_545  A
C1050      C1895   1.481   1_545  S
O1051      C1061   1.265       .  A
O1051      V1059   1.900       .  S
O1052      C1062   1.266       .  A
O1052      V1059   1.900       .  S
O1053      C1063   1.263       .  A
O1053      V1059   1.891       .  S
O1054      C1064   1.262       .  A
O1054      V1059   1.892       .  S
O1055      C1064   1.266       .  A
O1055      V1060   1.900       .  S
O1056      C1063   1.264       .  A
O1056      V1060   1.901       .  S
O1057      C1062   1.265       .  A
O1057      V1060   1.902       .  S
O1058      C1061   1.265       .  A
O1058      V1060   1.900       .  S
V1059      V1060   2.084       .  T
C1061      C1486   1.489       .  S
C1062      C1472   1.491       .  S
C1063      C1346   1.474       .  S
C1064      C1360   1.481       .  S
O1065      C1579   1.262       .  A
O1066      C1580   1.263   1_545  A
O1066      V1073   1.892       .  S
O1067      C1077   1.264   1_545  A
O1067      V1073   1.896   1_556  S
O1068      C1078   1.263   1_545  A
O1068      V1073   1.894       .  S
O1069      V1074   1.892   1_554  S
O1070      V1074   1.894       .  S
O1071      C1076   1.266       .  A
O1072      C1075   1.265       .  A
O1072      V1074   1.892       .  S
C1075      O1569   1.262       .  A
C1075      C1304   1.481       .  S
C1076      O1570   1.261       .  A
C1076      C1318   1.483       .  S
C1077      C1332   1.477       .  S
C1078      C1500   1.472   1_565  S
O1079      C1089   1.264       .  A
O1079      V1087   1.894       .  S
O1080      C1090   1.263       .  A
O1080      V1087   1.896   1_554  S
O1081      C1091   1.264       .  A
O1081      V1087   1.893   1_554  S
O1082      C1092   1.263       .  A
O1083      C1092   1.264   1_554  A
O1083      V1088   1.893   1_554  S
O1084      C1091   1.264   1_556  A
O1085      V1088   1.895   1_554  S
O1086      V1088   1.898       .  S
C1089      C1290   1.475       .  S
C1090      C1447   1.470       .  S
C1091      C1279   1.482       .  S
C1092      C1262   1.479       .  S
O1093      C1103   1.261       .  A
O1093      V1101   1.888       .  S
O1094      C1104   1.261       .  A
O1094      V1101   1.887       .  S
O1095      C1105   1.264       .  A
O1095      V1101   1.898   1_556  S
O1096      C1106   1.264       .  A
O1096      V1101   1.898       .  S
O1097      C1610   1.262   1_545  A
O1097      V1102   1.888   1_554  S
O1098      C1609   1.262   1_545  A
O1098      V1102   1.888       .  S
O1099      C1608   1.264   1_546  A
O1099      V1102   1.891       .  S
O1100      C1607   1.265   1_545  A
O1100      V1102   1.894       .  S
V1101      V1606   2.084       .  T
V1102      V1605   2.086   1_545  T
C1103      O1604   1.266       .  A
C1103      C1307   1.483       .  S
C1104      O1603   1.266       .  A
C1104      C1321   1.483       .  S
C1105      O1602   1.263       .  A
C1105      C1251   1.474       .  S
C1106      O1601   1.263       .  A
C1106      C1388   1.479       .  S
O1107      C1117   1.264       .  A
O1107      V1115   1.894       .  S
O1108      C1118   1.264   1_556  A
O1108      V1115   1.894   1_556  S
O1109      C1119   1.263       .  A
O1109      V1115   1.894       .  S
O1110      C1120   1.263       .  A
O1110      V1115   1.892   1_556  S
O1111      C1120   1.264       .  A
O1111      V1116   1.899   1_556  S
O1112      C1119   1.264       .  A
O1112      V1116   1.898       .  S
O1113      C1118   1.264       .  A
O1113      V1116   1.892       .  S
O1114      C1117   1.263   1_556  A
O1114      V1116   1.893   1_556  S
V1115      V1116   2.085       .  T
C1117      C1265   1.477   1_554  S
C1118      C1276   1.482       .  S
C1119      C1363   1.475       .  S
C1120      C1234   1.473       .  S
O1121      C1131   1.266       .  A
O1121      V1633   1.901       .  S
O1122      C1132   1.265       .  A
O1122      V1129   1.901       .  S
O1123      C1133   1.263       .  A
O1123      V1129   1.893       .  S
O1124      C1134   1.264       .  A
O1124      V1129   1.893       .  S
O1125      V1130   1.896       .  S
O1126      V1130   1.897       .  S
O1127      V1634   1.894   1_545  S
O1128      V1130   1.900       .  S
V1129      O1625   1.901   1_545  S
V1130      O1631   1.897       .  S
C1131      C1209   1.488       .  S
C1132      C1220   1.487       .  S
C1133      C1335   1.476       .  S
C1134      C1461   1.479       .  S
O1135      V1143   1.904       .  S
O1136      V1143   1.900       .  S
O1137      C1147   1.264   1_655  A
O1137      V1143   1.896       .  S
O1138      C1148   1.263       .  A
O1138      V1143   1.895       .  S
O1139      V1144   1.891       .  S
O1140      V1144   1.893       .  S
O1141      C1146   1.265       .  A
O1141      V1144   1.898       .  S
O1142      C1145   1.264       .  A
O1142      V1144   1.899       .  S
C1145      C1206   1.489       .  S
C1146      C1223   1.488       .  S
C1147      C1293   1.477       .  S
C1148      C1405   1.477       .  S
O1149      C1663   1.264   1_545  A
O1149      V1157   1.893       .  S
O1150      C1664   1.264       .  A
O1150      V1157   1.896       .  S
O1151      C1161   1.265       .  A
O1151      V1157   1.899       .  S
O1152      C1162   1.265       .  A
O1152      V1661   1.900       .  S
O1153      C1162   1.265       .  A
O1153      V1158   1.898       .  S
O1154      C1161   1.265       .  A
O1154      V1662   1.900   1_545  S
O1155      C1160   1.264       .  A
O1155      V1158   1.896       .  S
O1156      C1159   1.264       .  A
O1156      V1158   1.898       .  S
V1157      O1656   1.899   1_545  S
V1157      V1662   2.084   1_545  T
V1158      O1658   1.898       .  S
V1158      V1661   2.085       .  T
C1159      O1653   1.264       .  A
C1159      C1248   1.479       .  S
C1160      O1654   1.264       .  A
C1160      C1377   1.482       .  S
C1161      C1192   1.486       .  S
C1162      C1178   1.488       .  S
O1163      C1173   1.265       .  A
O1163      V1171   1.899       .  S
O1164      C1174   1.265       .  A
O1164      V1171   1.901       .  S
O1165      C1175   1.265       .  A
O1165      V1171   1.900       .  S
O1166      C1176   1.265       .  A
O1166      V1171   1.900       .  S
O1167      C1176   1.265       .  A
O1167      V1172   1.899       .  S
O1168      C1175   1.265       .  A
O1168      V1172   1.899       .  S
O1169      C1174   1.264       .  A
O1169      V1172   1.891       .  S
O1170      C1173   1.263       .  A
O1170      V1172   1.892       .  S
V1171      V1172   2.084       .  T
C1173      C1237   1.480       .  S
C1174      C1349   1.481       .  S
C1175      C1195   1.487       .  S
C1176      C1181   1.488       .  S
C1177      C1178   1.406       .  A
C1177      C1182   1.403       .  A
C1177      H1184   1.084       .  S
C1178      C1179   1.413       .  A
C1179      C1180   1.403       .  A
C1179      N1186   1.432       .  S
C1180      C1181   1.406       .  A
C1180      H1185   1.084       .  S
C1181      C1182   1.413       .  A
C1182      N1183   1.433       .  S
N1183      H1187   1.046       .  S
N1183      H1188   1.046       .  S
N1186      H1189   1.046       .  S
N1186      H1190   1.046       .  S
C1191      C1192   1.405       .  A
C1191      C1196   1.403       .  A
C1191      H1198   1.084       .  S
C1192      C1193   1.413       .  A
C1193      C1194   1.404       .  A
C1193      N1200   1.432       .  S
C1194      C1195   1.405       .  A
C1194      H1199   1.084       .  S
C1195      C1196   1.413       .  A
C1196      N1197   1.433       .  S
N1197      H1201   1.046       .  S
N1197      H1202   1.046       .  S
N1200      H1203   1.046       .  S
N1200      H1204   1.046       .  S
C1205      C1210   1.405       .  A
C1205      H1212   1.084       .  S
C1206      C1207   1.414       .  A
C1207      C1208   1.403       .  A
C1207      N1214   1.432       .  S
C1208      C1209   1.405       .  A
C1208      H1213   1.084       .  S
C1210      N1211   1.432       .  S
N1211      H1215   1.046       .  S
N1211      H1216   1.046       .  S
N1214      H1217   1.046       .  S
N1214      H1218   1.046       .  S
C1219      C1224   1.401       .  A
C1219      H1226   1.084       .  S
C1220      C1221   1.415       .  A
C1221      C1222   1.406       .  A
C1221      N1228   1.438       .  S
C1222      C1223   1.406       .  A
C1222      H1227   1.083       .  S
C1224      N1225   1.433       .  S
N1225      H1229   1.046       .  S
N1225      H1230   1.046       .  S
N1228      H1231   1.046       .  S
N1228      H1232   1.046       .  S
C1233      C1234   1.402       .  A
C1233      C1238   1.402       .  A
C1233      H1240   1.084       .  S
C1234      C1235   1.408       .  A
C1235      C1236   1.400       .  A
C1235      N1242   1.433       .  S
C1236      C1237   1.405       .  A
C1236      H1241   1.084       .  S
C1237      C1238   1.412       .  A
C1238      N1239   1.432       .  S
N1239      H1243   1.046       .  S
N1239      H1244   1.046       .  S
N1242      H1245   1.046       .  S
N1242      H1246   1.046       .  S
C1247      C1752   1.401   1_545  A
C1247      C1252   1.401       .  A
C1247      H1254   1.084       .  S
C1248      C1751   1.405       .  A
C1248      C1249   1.411       .  A
C1249      C1250   1.401       .  A
C1249      N1256   1.432       .  S
C1250      C1251   1.402       .  A
C1250      H1255   1.084       .  S
C1251      C1756   1.411       .  A
C1252      C1755   1.415   1_545  A
C1252      N1253   1.439       .  S
N1253      H1257   1.045       .  S
N1253      H1258   1.046       .  S
N1256      H1259   1.046       .  S
N1256      H1260   1.046       .  S
C1261      C1262   1.404   1_554  A
C1261      C1266   1.400       .  A
C1261      H1268   1.084       .  S
C1262      C1263   1.412       .  A
C1263      C1264   1.400       .  A
C1263      N1270   1.433       .  S
C1264      C1265   1.403       .  A
C1264      H1269   1.084       .  S
C1265      C1266   1.411   1_556  A
C1266      N1267   1.433       .  S
N1267      H1271   1.046       .  S
N1267      H1272   1.046       .  S
N1270      H1273   1.046       .  S
N1270      H1274   1.046       .  S
C1275      C1276   1.405       .  A
C1275      C1280   1.399       .  A
C1275      H1282   1.084       .  S
C1276      C1277   1.415       .  A
C1277      C1278   1.403       .  A
C1277      N1284   1.438       .  S
C1278      C1279   1.405       .  A
C1278      H1283   1.083       .  S
C1279      C1280   1.411       .  A
C1280      N1281   1.433       .  S
N1281      H1285   1.046       .  S
N1281      H1286   1.046   1_554  S
N1284      H1287   1.046       .  S
N1284      H1288   1.046       .  S
C1289      C1290   1.402       .  A
C1289      C1294   1.404       .  A
C1289      H1296   1.084       .  S
C1291      C1292   1.398       .  A
C1291      N1298   1.433       .  S
C1292      C1293   1.404   1_655  A
C1292      H1297   1.084       .  S
C1294      N1295   1.438       .  S
N1295      H1299   1.045       .  S
N1295      H1300   1.046       .  S
N1298      H1301   1.046       .  S
N1298      H1302   1.045       .  S
C1303      C1304   1.404       .  A
C1303      C1308   1.394       .  A
C1303      H1310   1.084       .  S
C1304      C1809   1.418   1_556  A
C1305      C1808   1.418       .  A
C1305      C1306   1.396       .  A
C1305      N1312   1.433       .  S
C1306      C1811   1.405   1_545  A
C1306      H1311   1.084       .  S
C1307      C1810   1.405       .  A
C1307      C1308   1.419   1_554  A
C1308      N1309   1.433       .  S
N1309      H1313   1.045       .  S
N1309      H1314   1.045   1_556  S
N1312      H1315   1.045       .  S
N1312      H1316   1.045   1_556  S
C1317      C1318   1.404   1_554  A
C1317      C1322   1.395       .  A
C1317      H1324   1.084       .  S
C1318      C1823   1.419       .  A
C1319      C1822   1.416   1_545  A
C1319      C1320   1.394       .  A
C1319      N1326   1.433       .  S
C1320      C1825   1.403   1_545  A
C1320      H1325   1.084       .  S
C1321      C1824   1.404   1_554  A
C1321      C1322   1.419       .  A
C1322      N1323   1.433       .  S
N1323      H1327   1.045       .  S
N1323      H1328   1.045   1_554  S
N1326      H1329   1.045       .  S
N1326      H1330   1.045       .  S
C1331      C1336   1.402       .  A
C1331      H1338   1.084       .  S
C1332      C1837   1.411       .  A
C1333      C1836   1.406       .  A
C1333      C1334   1.403       .  A
C1333      N1340   1.433       .  S
C1334      C1839   1.407       .  A
C1334      H1339   1.084       .  S
C1335      C1838   1.403   1_545  A
C1336      N1337   1.433       .  S
N1337      H1341   1.046       .  S
N1337      H1342   1.046       .  S
N1340      H1343   1.046       .  S
N1340      H1344   1.046       .  S
C1345      C1346   1.403       .  A
C1345      C1350   1.407       .  A
C1345      H1352   1.084       .  S
C1346      C1347   1.407       .  A
C1347      C1348   1.397       .  A
C1347      N1354   1.433       .  S
C1348      C1349   1.404       .  A
C1348      H1353   1.084       .  S
C1349      C1350   1.416       .  A
C1350      N1351   1.438       .  S
N1351      H1355   1.046       .  S
N1351      H1356   1.046       .  S
N1354      H1357   1.046       .  S
N1354      H1358   1.046       .  S
C1359      C1360   1.405       .  A
C1359      C1364   1.404       .  A
C1359      H1366   1.084       .  S
C1360      C1361   1.418       .  A
C1361      C1362   1.397       .  A
C1361      N1368   1.433       .  S
C1362      C1363   1.401       .  A
C1362      H1367   1.084       .  S
C1363      C1364   1.412       .  A
C1364      N1365   1.438       .  S
N1365      H1369   1.045       .  S
N1365      H1370   1.046       .  S
N1368      H1371   1.046       .  S
N1368      H1372   1.045       .  S
C1373      C1878   1.402       .  A
C1373      C1378   1.401       .  A
C1373      H1380   1.084   1_545  S
C1374      C1553   1.470       .  S
C1374      C1877   1.400       .  A
C1374      C1375   1.406       .  A
C1375      C1376   1.401       .  A
C1375      N1382   1.433       .  S
C1376      C1377   1.407       .  A
C1376      H1381   1.084       .  S
C1377      C1882   1.414       .  A
C1378      C1881   1.412       .  A
C1378      N1379   1.433   1_545  S
N1379      H1383   1.046       .  S
N1379      H1384   1.046   1_565  S
N1382      H1385   1.046       .  S
N1382      H1386   1.046       .  S
C1387      C1892   1.402   1_545  A
C1387      C1392   1.398       .  A
C1387      H1394   1.084       .  S
C1388      C1891   1.405       .  A
C1388      C1389   1.411       .  A
C1389      C1390   1.401       .  A
C1389      N1396   1.433       .  S
C1390      C1391   1.403       .  A
C1390      H1395   1.084       .  S
C1391      C1554   1.475       .  S
C1391      C1896   1.409       .  A
C1392      C1895   1.411   1_545  A
C1392      N1393   1.433       .  S
N1393      H1397   1.046       .  S
N1393      H1398   1.046       .  S
N1396      H1399   1.046       .  S
N1396      H1400   1.046       .  S
C1401      C1406   1.405       .  A
C1401      H1408   1.084       .  S
C1402      C1403   1.407       .  A
C1403      C1404   1.398       .  A
C1403      N1410   1.433       .  S
C1404      H1409   1.084       .  S
C1405      C1406   1.414       .  A
C1406      N1407   1.438       .  S
N1407      H1411   1.046       .  S
N1407      H1412   1.045       .  S
N1410      H1413   1.046       .  S
N1410      H1414   1.046       .  S
C1415      C1416   1.405       .  A
C1415      C1420   1.403       .  A
C1415      H1422   1.084       .  S
C1416      C1417   1.413       .  A
C1417      C1418   1.403       .  A
C1417      N1424   1.433       .  S
C1418      C1419   1.405       .  A
C1418      H1423   1.084       .  S
C1419      C1420   1.414       .  A
C1420      N1421   1.433       .  S
N1421      H1425   1.046       .  S
N1421      H1426   1.046       .  S
N1424      H1427   1.046       .  S
N1424      H1428   1.046       .  S
C1429      C1430   1.405       .  A
C1429      C1434   1.405       .  A
C1429      H1436   1.084       .  S
C1430      C1431   1.413       .  A
C1431      C1432   1.402       .  A
C1431      N1438   1.433       .  S
C1432      C1433   1.405       .  A
C1432      H1437   1.084       .  S
C1433      C1434   1.414       .  A
C1434      N1435   1.433       .  S
N1435      H1439   1.046       .  S
N1435      H1440   1.046       .  S
N1438      H1441   1.046       .  S
N1438      H1442   1.046       .  S
C1443      C1448   1.406       .  A
C1443      H1450   1.083       .  S
C1444      C1445   1.415       .  A
C1445      C1446   1.401       .  A
C1445      N1452   1.433       .  S
C1446      C1447   1.399       .  A
C1446      H1451   1.084       .  S
C1448      N1449   1.438       .  S
N1449      H1453   1.045       .  S
N1449      H1454   1.046       .  S
N1452      H1455   1.046       .  S
N1452      H1456   1.046       .  S
C1457      C1962   1.402   1_565  A
C1457      C1462   1.401       .  A
C1457      H1464   1.084       .  S
C1458      C1961   1.405       .  A
C1459      C1460   1.401       .  A
C1459      N1466   1.433       .  S
C1460      H1465   1.084       .  S
C1461      C1462   1.412   1_545  A
C1462      N1463   1.433       .  S
N1463      H1467   1.046       .  S
N1463      H1468   1.046   1_565  S
N1466      H1469   1.046       .  S
N1466      H1470   1.046       .  S
C1471      C1472   1.406       .  A
C1471      C1476   1.402       .  A
C1471      H1478   1.084       .  S
C1472      C1473   1.417       .  A
C1473      C1474   1.408       .  A
C1473      N1480   1.438       .  S
C1474      C1475   1.406       .  A
C1474      H1479   1.083       .  S
C1475      C1476   1.412       .  A
C1476      N1477   1.433       .  S
N1477      H1481   1.046       .  S
N1477      H1482   1.046       .  S
N1480      H1483   1.046       .  S
N1480      H1484   1.046       .  S
C1485      C1486   1.406       .  A
C1485      C1490   1.403       .  A
C1485      H1492   1.084       .  S
C1486      C1487   1.416       .  A
C1487      C1488   1.407       .  A
C1487      N1494   1.438       .  S
C1488      C1489   1.406       .  A
C1488      H1493   1.083       .  S
C1489      C1490   1.412       .  A
C1490      N1491   1.433       .  S
N1491      H1495   1.046       .  S
N1491      H1496   1.046       .  S
N1494      H1497   1.046       .  S
N1494      H1498   1.046       .  S
C1499      C2004   1.406       .  A
C1499      C1504   1.403       .  A
C1499      H1506   1.083       .  S
C1500      C2003   1.401   1_545  A
C1501      C1502   1.399       .  A
C1501      N1508   1.433       .  S
C1502      H1507   1.084       .  S
C1503      C2008   1.413       .  A
C1504      C2007   1.410       .  A
C1504      N1505   1.438       .  S
N1505      H1509   1.045       .  S
N1505      H1510   1.046       .  S
N1508      H1511   1.046       .  S
N1508      H1512   1.044   1_655  S
O1513      C1523   1.264       .  A
O1514      C1524   1.265       .  A
O1515      C1525   1.263   1_565  A
O1515      V1521   1.894       .  S
O1516      V1521   1.894       .  S
O1517      V1522   1.895       .  S
O1518      V1522   1.893       .  S
O1519      C1524   1.266       .  A
O1520      C1523   1.266       .  A
C1523      C1979   1.488       .  S
C1524      C1993   1.488       .  S
C1525      C1962   1.472       .  S
C1526      C2007   1.474       .  S
O1527      C1537   1.263       .  A
O1527      V1535   1.895       .  S
O1528      C1538   1.264       .  A
O1529      C1539   1.264       .  A
O1529      V1535   1.898       .  S
O1530      C1540   1.264       .  A
O1530      V1535   1.896       .  S
O1531      V1536   1.898       .  S
O1532      V1536   1.898       .  S
O1533      C1538   1.266       .  A
O1533      V1536   1.899       .  S
O1534      C1537   1.267       .  A
C1537      C1934   1.490       .  S
C1538      C1920   1.488       .  S
C1539      C1948   1.481       .  S
C1540      C1906   1.473       .  S
O1541      C1551   1.265       .  A
O1541      V1549   1.898       .  S
O1542      C1552   1.264       .  A
O1543      C1553   1.264       .  A
O1543      V1549   1.898       .  S
O1544      C1554   1.264       .  A
O1544      V1549   1.897       .  S
O1545      V1550   1.899       .  S
O1546      V1550   1.897       .  S
O1547      C1552   1.266       .  A
O1547      V1550   1.902       .  S
O1548      C1551   1.266       .  A
C1551      C1923   1.488       .  S
C1552      C1937   1.488       .  S
O1555      C1565   1.265       .  A
O1555      V1563   1.901       .  S
O1556      C1566   1.266       .  A
O1556      V1563   1.901       .  S
O1557      C1567   1.263       .  A
O1557      V1563   1.893       .  S
O1558      C1568   1.262       .  A
O1558      V1563   1.893       .  S
O1559      C1568   1.266       .  A
O1559      V1564   1.899       .  S
O1560      C1567   1.265       .  A
O1560      V1564   1.898       .  S
O1561      C1566   1.264       .  A
O1561      V1564   1.900       .  S
O1562      C1565   1.265       .  A
O1562      V1564   1.898       .  S
V1563      V1564   2.084       .  T
C1565      C1990   1.485       .  S
C1566      C1976   1.487       .  S
C1567      C1850   1.483       .  S
C1568      C1864   1.483       .  S
O1570      V1577   1.887       .  S
O1571      C1581   1.264       .  A
O1571      V1577   1.895       .  S
O1572      C1582   1.263       .  A
O1572      V1577   1.896   1_554  S
O1573      V1578   1.894   1_554  S
O1574      V1578   1.892       .  S
O1575      C1580   1.264       .  A
O1576      C1579   1.265   1_565  A
O1576      V1578   1.893       .  S
C1579      C1808   1.483       .  S
C1580      C1822   1.478       .  S
C1581      C1836   1.469       .  S
C1582      C2004   1.481       .  S
O1583      C1593   1.264       .  A
O1583      V1591   1.896   1_556  S
O1584      C1594   1.264       .  A
O1584      V1591   1.895       .  S
O1585      C1595   1.264   1_554  A
O1585      V1591   1.893       .  S
O1586      C1596   1.263   1_556  A
O1587      C1596   1.265       .  A
O1587      V1592   1.895       .  S
O1588      C1595   1.264       .  A
O1589      V1592   1.894       .  S
O1590      V1592   1.893   1_556  S
C1593      C1794   1.473       .  S
C1594      C1951   1.473       .  S
C1595      C1783   1.482   1_556  S
C1596      C1766   1.478       .  S
O1597      C1607   1.262       .  A
O1597      V1605   1.893       .  S
O1598      C1608   1.263       .  A
O1598      V1605   1.896   1_554  S
O1599      C1609   1.266       .  A
O1599      V1605   1.905       .  S
O1600      C1610   1.266       .  A
O1600      V1605   1.905   1_554  S
O1601      V1606   1.894       .  S
O1602      V1606   1.893   1_556  S
O1603      V1606   1.897       .  S
O1604      V1606   1.898       .  S
C1607      C1811   1.483       .  S
C1608      C1825   1.476       .  S
C1609      C1755   1.479       .  S
C1610      C1892   1.474       .  S
O1611      C1621   1.265   1_554  A
O1611      V1619   1.896       .  S
O1612      C1622   1.264       .  A
O1612      V1619   1.894       .  S
O1613      C1623   1.262       .  A
O1613      V1619   1.892       .  S
O1614      C1624   1.263       .  A
O1614      V1619   1.892   1_556  S
O1615      C1624   1.265       .  A
O1615      V1620   1.899   1_556  S
O1616      C1623   1.265       .  A
O1616      V1620   1.900       .  S
O1617      C1622   1.264       .  A
O1617      V1620   1.894       .  S
O1618      C1621   1.263       .  A
O1618      V1620   1.892   1_556  S
V1619      V1620   2.085       .  T
C1621      C1769   1.480       .  S
C1622      C1780   1.480       .  S
C1623      C1867   1.472       .  S
C1624      C1738   1.478       .  S
O1625      C1635   1.266       .  A
O1626      C1636   1.266       .  A
O1626      V1633   1.903       .  S
O1627      C1637   1.262       .  A
O1627      V1633   1.890       .  S
O1628      C1638   1.262       .  A
O1628      V1633   1.893       .  S
O1629      V1634   1.895       .  S
O1630      V1634   1.895       .  S
O1632      V1634   1.896       .  S
C1635      C1713   1.487       .  S
C1636      C1724   1.485       .  S
C1637      C1839   1.483       .  S
C1638      C1965   1.474       .  S
O1639      V1647   1.901       .  S
O1640      V1647   1.899       .  S
O1641      C1651   1.264   1_655  A
O1641      V1647   1.895       .  S
O1642      C1652   1.264   1_655  A
O1642      V1647   1.896       .  S
O1643      V1648   1.887       .  S
O1644      V1648   1.888       .  S
O1645      C1650   1.264       .  A
O1645      V1648   1.896       .  S
O1646      C1649   1.264       .  A
O1646      V1648   1.895       .  S
C1649      C1710   1.488       .  S
C1650      C1727   1.486       .  S
C1651      C1797   1.471       .  S
C1652      C1909   1.480       .  S
O1653      V1661   1.893       .  S
O1654      V1661   1.895       .  S
O1655      C1665   1.265       .  A
O1655      V1661   1.899       .  S
O1656      C1666   1.265       .  A
O1657      C1666   1.265       .  A
O1657      V1662   1.899       .  S
O1658      C1665   1.264       .  A
O1659      C1664   1.264   1_565  A
O1659      V1662   1.897       .  S
O1660      C1663   1.264       .  A
O1660      V1662   1.900       .  S
C1663      C1752   1.476       .  S
C1664      C1881   1.480       .  S
C1665      C1696   1.485       .  S
C1666      C1682   1.488       .  S
O1667      C1677   1.264       .  A
O1667      V1675   1.897       .  S
O1668      C1678   1.263       .  A
O1668      V1675   1.897       .  S
O1669      C1679   1.266       .  A
O1669      V1675   1.900       .  S
O1670      C1680   1.265       .  A
O1670      V1675   1.899       .  S
O1671      C1680   1.266       .  A
O1671      V1676   1.899       .  S
O1672      C1679   1.264       .  A
O1672      V1676   1.897       .  S
O1673      C1678   1.263       .  A
O1673      V1676   1.893       .  S
O1674      C1677   1.264       .  A
O1674      V1676   1.894       .  S
V1675      V1676   2.084       .  T
C1677      C1741   1.476       .  S
C1678      C1853   1.467       .  S
C1679      C1699   1.487       .  S
C1680      C1685   1.489       .  S
C1681      C1682   1.405       .  A
C1681      C1686   1.402       .  A
C1681      H1688   1.084       .  S
C1682      C1683   1.416       .  A
C1683      C1684   1.407       .  A
C1683      N1690   1.438       .  S
C1684      C1685   1.406       .  A
C1684      H1689   1.083       .  S
C1685      C1686   1.412       .  A
C1686      N1687   1.433       .  S
N1687      H1691   1.046       .  S
N1687      H1692   1.046       .  S
N1690      H1693   1.045       .  S
N1690      H1694   1.046       .  S
C1695      C1696   1.405       .  A
C1695      C1700   1.406       .  A
C1695      H1702   1.083       .  S
C1696      C1697   1.411       .  A
C1697      C1698   1.402       .  A
C1697      N1704   1.433       .  S
C1698      C1699   1.405       .  A
C1698      H1703   1.084       .  S
C1699      C1700   1.416       .  A
C1700      N1701   1.438       .  S
N1701      H1705   1.046       .  S
N1701      H1706   1.045       .  S
N1704      H1707   1.046       .  S
N1704      H1708   1.046       .  S
C1709      C1714   1.404       .  A
C1709      H1716   1.084       .  S
C1710      C1711   1.414       .  A
C1711      C1712   1.402       .  A
C1711      N1718   1.433       .  S
C1712      C1713   1.404       .  A
C1712      H1717   1.084       .  S
C1714      N1715   1.433       .  S
N1715      H1719   1.046       .  S
N1715      H1720   1.046       .  S
N1718      H1721   1.046       .  S
N1718      H1722   1.046       .  S
C1723      C1728   1.402       .  A
C1723      H1730   1.084       .  S
C1724      C1725   1.413       .  A
C1725      C1726   1.405       .  A
C1725      N1732   1.438       .  S
C1726      C1727   1.405       .  A
C1726      H1731   1.083       .  S
C1728      N1729   1.433       .  S
N1729      H1733   1.046       .  S
N1729      H1734   1.046       .  S
N1732      H1735   1.046       .  S
N1732      H1736   1.046       .  S
C1737      C1738   1.404       .  A
C1737      C1742   1.402       .  A
C1737      H1744   1.084       .  S
C1738      C1739   1.411       .  A
C1739      C1740   1.400       .  A
C1739      N1746   1.433       .  S
C1740      C1741   1.403       .  A
C1740      H1745   1.084       .  S
C1741      C1742   1.410       .  A
C1742      N1743   1.433       .  S
N1743      H1747   1.046       .  S
N1743      H1748   1.046       .  S
N1746      H1749   1.046       .  S
N1746      H1750   1.046       .  S
C1751      C1756   1.403       .  A
C1751      H1758   1.084       .  S
C1752      C1753   1.410       .  A
C1753      C1754   1.404       .  A
C1753      N1760   1.432       .  S
C1754      C1755   1.404       .  A
C1754      H1759   1.084       .  S
C1756      N1757   1.438       .  S
N1757      H1761   1.046       .  S
N1757      H1762   1.046       .  S
N1760      H1763   1.046       .  S
N1760      H1764   1.046       .  S
C1765      C1766   1.403   1_556  A
C1765      C1770   1.400       .  A
C1765      H1772   1.084       .  S
C1766      C1767   1.411       .  A
C1767      C1768   1.400       .  A
C1767      N1774   1.433       .  S
C1768      C1769   1.404   1_554  A
C1768      H1773   1.084       .  S
C1769      C1770   1.413       .  A
C1770      N1771   1.433       .  S
N1771      H1775   1.046   1_556  S
N1771      H1776   1.046       .  S
N1774      H1777   1.046       .  S
N1774      H1778   1.046   1_554  S
C1779      C1780   1.405   1_556  A
C1779      C1784   1.400       .  A
C1779      H1786   1.084       .  S
C1780      C1781   1.414       .  A
C1781      C1782   1.403       .  A
C1781      N1788   1.438       .  S
C1782      C1783   1.405       .  A
C1782      H1787   1.083       .  S
C1783      C1784   1.411   1_554  A
C1784      N1785   1.433       .  S
N1785      H1789   1.046   1_556  S
N1785      H1790   1.046       .  S
N1788      H1791   1.046       .  S
N1788      H1792   1.046       .  S
C1793      C1794   1.400       .  A
C1793      C1798   1.403       .  A
C1793      H1800   1.084       .  S
C1795      C1796   1.395       .  A
C1795      N1802   1.433       .  S
C1796      C1797   1.400   1_655  A
C1796      H1801   1.084       .  S
C1798      N1799   1.438       .  S
N1799      H1803   1.046       .  S
N1799      H1804   1.046       .  S
N1802      H1805   1.045       .  S
N1802      H1806   1.045       .  S
C1807      C1808   1.405   1_564  A
C1807      C1812   1.395       .  A
C1807      H1814   1.084       .  S
C1809      C1810   1.397       .  A
C1809      N1816   1.433       .  S
C1810      H1815   1.084       .  S
C1811      C1812   1.418   1_556  A
C1812      N1813   1.433       .  S
N1813      H1817   1.044   1_554  S
N1813      H1818   1.046       .  S
N1816      H1819   1.044   1_554  S
N1816      H1820   1.046       .  S
C1821      C1822   1.405   1_556  A
C1821      C1826   1.398       .  A
C1821      H1828   1.084       .  S
C1823      C1824   1.395       .  A
C1823      N1830   1.433       .  S
C1824      H1829   1.084       .  S
C1825      C1826   1.415   1_554  A
C1826      N1827   1.433       .  S
N1827      H1831   1.044       .  S
N1827      H1832   1.046       .  S
N1830      H1833   1.044   1_556  S
N1830      H1834   1.046       .  S
C1835      C1840   1.404       .  A
C1835      H1842   1.084       .  S
C1837      C1838   1.401       .  A
C1837      N1844   1.433       .  S
C1838      H1843   1.084       .  S
C1840      N1841   1.438       .  S
N1841      H1845   1.046       .  S
N1841      H1846   1.046       .  S
N1844      H1847   1.046       .  S
N1844      H1848   1.046       .  S
C1849      C1850   1.408       .  A
C1849      C1854   1.405       .  A
C1849      H1856   1.083       .  S
C1850      C1851   1.414       .  A
C1851      C1852   1.400       .  A
C1851      N1858   1.433       .  S
C1852      C1853   1.399       .  A
C1852      H1857   1.084       .  S
C1853      C1854   1.408       .  A
C1854      N1855   1.438       .  S
N1855      H1859   1.046       .  S
N1855      H1860   1.046       .  S
N1858      H1861   1.046       .  S
N1858      H1862   1.046       .  S
C1863      C1864   1.406       .  A
C1863      C1868   1.401       .  A
C1863      H1870   1.084       .  S
C1864      C1865   1.421       .  A
C1865      C1866   1.398       .  A
C1865      N1872   1.433       .  S
C1866      C1867   1.400       .  A
C1866      H1871   1.084       .  S
C1867      C1868   1.407       .  A
C1868      N1869   1.433       .  S
N1869      H1873   1.045       .  S
N1869      H1874   1.046       .  S
N1872      H1875   1.045       .  S
N1872      H1876   1.045       .  S
C1877      C1882   1.402       .  A
C1877      H1884   1.084       .  S
C1878      C1879   1.408       .  A
C1879      C1880   1.402       .  A
C1879      N1886   1.433       .  S
C1880      C1881   1.405       .  A
C1880      H1885   1.084       .  S
C1882      N1883   1.432       .  S
N1883      H1887   1.046       .  S
N1883      H1888   1.046       .  S
N1886      H1889   1.046   1_545  S
N1886      H1890   1.046       .  S
C1891      C1896   1.402       .  A
C1891      H1898   1.084       .  S
C1892      C1893   1.411       .  A
C1893      C1894   1.407       .  A
C1893      N1900   1.438       .  S
C1894      C1895   1.407       .  A
C1894      H1899   1.083       .  S
C1896      N1897   1.433       .  S
N1897      H1901   1.046       .  S
N1897      H1902   1.046       .  S
N1900      H1903   1.046       .  S
N1900      H1904   1.046       .  S
C1905      C1910   1.406       .  A
C1905      H1912   1.084       .  S
C1906      C1907   1.406       .  A
C1907      C1908   1.398       .  A
C1907      N1914   1.433       .  S
C1908      H1913   1.084       .  S
C1909      C1910   1.416   1_455  A
C1910      N1911   1.438       .  S
N1911      H1915   1.046       .  S
N1911      H1916   1.046       .  S
N1914      H1917   1.046       .  S
N1914      H1918   1.046       .  S
C1919      C1920   1.405       .  A
C1919      C1924   1.402       .  A
C1919      H1926   1.084       .  S
C1920      C1921   1.417       .  A
C1921      C1922   1.406       .  A
C1921      N1928   1.438       .  S
C1922      C1923   1.406       .  A
C1922      H1927   1.083       .  S
C1923      C1924   1.413       .  A
C1924      N1925   1.433       .  S
N1925      H1929   1.046       .  S
N1925      H1930   1.046       .  S
N1928      H1931   1.046       .  S
N1928      H1932   1.045       .  S
C1933      C1934   1.405       .  A
C1933      C1938   1.402       .  A
C1933      H1940   1.084       .  S
C1934      C1935   1.418       .  A
C1935      C1936   1.407       .  A
C1935      N1942   1.438       .  S
C1936      C1937   1.404       .  A
C1936      H1941   1.083       .  S
C1937      C1938   1.413       .  A
C1938      N1939   1.433       .  S
N1939      H1943   1.046       .  S
N1939      H1944   1.046       .  S
N1942      H1945   1.046       .  S
N1942      H1946   1.046       .  S
C1947      C1952   1.405       .  A
C1947      H1954   1.083       .  S
C1948      C1949   1.412       .  A
C1949      C1950   1.402       .  A
C1949      N1956   1.433       .  S
C1950      C1951   1.402       .  A
C1950      H1955   1.084       .  S
C1952      N1953   1.438       .  S
N1953      H1957   1.045       .  S
N1953      H1958   1.046       .  S
N1956      H1959   1.046       .  S
N1956      H1960   1.046       .  S
C1961      C1966   1.400       .  A
C1961      H1968   1.084       .  S
C1963      C1964   1.402       .  A
C1963      N1970   1.432       .  S
C1964      H1969   1.084       .  S
C1965      C1966   1.408       .  A
C1966      N1967   1.433       .  S
N1967      H1971   1.046       .  S
N1967      H1972   1.046       .  S
N1970      H1973   1.046       .  S
N1970      H1974   1.046   1_565  S
C1975      C1976   1.404       .  A
C1975      C1980   1.403       .  A
C1975      H1982   1.084       .  S
C1976      C1977   1.413       .  A
C1977      C1978   1.405       .  A
C1977      N1984   1.432       .  S
C1978      C1979   1.406       .  A
C1978      H1983   1.084       .  S
C1979      C1980   1.414       .  A
C1980      N1981   1.433       .  S
N1981      H1985   1.046       .  S
N1981      H1986   1.046       .  S
N1984      H1987   1.046       .  S
N1984      H1988   1.046       .  S
C1989      C1990   1.405       .  A
C1989      C1994   1.405       .  A
C1989      H1996   1.083       .  S
C1990      C1991   1.414       .  A
C1991      C1992   1.406       .  A
C1991      N1998   1.438       .  S
C1992      C1993   1.407       .  A
C1992      H1997   1.083       .  S
C1993      C1994   1.414       .  A
C1994      N1995   1.438       .  S
N1995      H1999   1.046       .  S
N1995      H2000   1.046       .  S
N1998      H2001   1.045       .  S
N1998      H2002   1.046       .  S
C2003      C2008   1.401       .  A
C2003      H2010   1.084       .  S
C2005      C2006   1.398       .  A
C2005      N2012   1.433       .  S
C2006      H2011   1.084       .  S
C2008      N2009   1.433       .  S
N2009      H2013   1.046       .  S
N2009      H2014   1.046       .  S
N2012      H2015   1.046       .  S
N2012      H2016   1.044   1_655  S
