geometry optimzed in LAMMPS
_audit_creation_date              2020-11-30 
_audit_creation_method            'lammps2cif' 
_symmetry_space_group_name_H-M    'P1' 
_symmetry_Int_Tables_number       1 
_symmetry_cell_setting            triclinic 
loop_ 
_symmetry_equiv_pos_as_xyz 
  x,y,z 
_cell_length_a                    44.23669269 
_cell_length_b                    44.50550048540303 
_cell_length_c                    66.48668355851157 
_cell_angle_alpha                 89.55732243899003 
_cell_angle_beta                  90.45474989995894 
_cell_angle_gamma                 119.75645489073274 
loop_ 
_atom_site_label 
_atom_site_type_symbol 
_atom_site_fract_x 
_atom_site_fract_y 
_atom_site_fract_z 
_atom_site_charge 
O1          O  0.47454227  0.49008978  0.21926739    -0.73000
O2          O  0.47655690  0.49520613  0.27922896    -0.74000
O3          O  0.47938938  0.03759732  0.24885533    -0.62600
O4          O  0.47305904  0.44607194  0.25099467    -0.71000
O5          O  0.03217115  0.47343668  0.25241619    -0.70500
O6          O  0.03766792  0.06725397  0.24826643    -0.61800
O7          O  0.03880856  0.02376552  0.27925254    -0.74300
O8          O  0.03759952  0.02068841  0.21907977    -0.73100
Cu9        Cu  0.47385310  0.49184411  0.24926360     1.04600
Cu10       Cu  0.04012316  0.02323080  0.24916238     1.04300
C11         C  0.50831219  0.00478853  0.21009605     0.93200
C12         C  0.00757138  0.51074903  0.28992937     0.92400
C13         C  0.00879088  0.06725375  0.24822333     0.84500
C14         C  0.00277207  0.44549413  0.25310535     0.90800
O15         O  0.47365118  0.23726627  0.28215617    -0.73000
O16         O  0.47540072  0.24455080  0.22198603    -0.74000
O17         O  0.47362137  0.19537637  0.25015642    -0.62600
O18         O  0.47563290  0.28661793  0.25374026    -0.71000
O19         O  0.03418320  0.31436424  0.25531121    -0.70500
O20         O  0.03221818  0.22340530  0.25118873    -0.61800
O21         O  0.03404706  0.27274795  0.22306289    -0.74300
O22         O  0.03215337  0.26464208  0.28340346    -0.73100
Cu23       Cu  0.47260566  0.24003220  0.25201383     1.04600
Cu24       Cu  0.03514183  0.26978388  0.25327660     1.04300
C25         C  0.50208638  0.24920516  0.29215014     0.93200
C26         C  0.50443924  0.25941267  0.21275103     0.92400
C27         C  0.50196926  0.19435450  0.25000367     0.84500
C28         C  0.50481567  0.31483786  0.25440947     0.90800
O29         O  0.20885870  0.47523666  0.22035626    -0.73000
O30         O  0.21306437  0.47778299  0.28088276    -0.74000
O31         O  0.20500499  0.01706033  0.25319685    -0.62600
O32         O  0.20878747  0.43036601  0.25119508    -0.71000
O33         O  0.26616536  0.45639831  0.25043834    -0.70500
O34         O  0.26237152  0.04633299  0.25026113    -0.61800
O35         O  0.26862541  0.00455079  0.28027948    -0.74300
O36         O  0.25889229  0.99928408  0.22044457    -0.73100
Cu37       Cu  0.20885661  0.47546973  0.25074790     1.04600
Cu38       Cu  0.26541341  0.00265415  0.25026947     1.04300
C39         C  0.23714029  0.48738956  0.21035009     0.93200
C40         C  0.24256969  0.49214845  0.28982464     0.92400
C41         C  0.23333705  0.04585601  0.25198279     0.84500
C42         C  0.23661825  0.42848031  0.25102577     0.90800
O43         O  0.20986189  0.22344099  0.28256248    -0.73000
O44         O  0.20425913  0.22240425  0.22230109    -0.74000
O45         O  0.20696489  0.17763353  0.25212322    -0.62600
O46         O  0.20793624  0.26888073  0.25290651    -0.71000
O47         O  0.26531469  0.29637625  0.25093199    -0.70500
O48         O  0.26454030  0.20610835  0.25083853    -0.61800
O49         O  0.26180745  0.24989881  0.22068822    -0.74300
O50         O  0.26764973  0.25204708  0.28108256    -0.73100
Cu51       Cu  0.20521723  0.22213048  0.25252258     1.04600
Cu52       Cu  0.26678716  0.25209575  0.25082015     1.04300
C53         C  0.23954270  0.23773752  0.29127148     0.93200
C54         C  0.23210377  0.23573697  0.21190766     0.92400
C55         C  0.23583304  0.17757310  0.25126024     0.84500
C56         C  0.23702984  0.29727652  0.25221875     0.90800
O57         O  0.48363279  0.04140714  0.41694334    -0.73000
O58         O  0.07350073  0.04020548  0.41451418    -0.74000
O59         O  0.02544927  0.03818570  0.38529317    -0.62600
O60         O  0.03060281  0.04180068  0.44571824    -0.71000
O61         O  0.49418429  0.48800183  0.44642967    -0.70500
O62         O  0.49033278  0.48320784  0.38639292    -0.61800
O63         O  0.03833231  0.48785900  0.41745695    -0.74300
O64         O  0.44661403  0.48487840  0.41682535    -0.73100
Cu65       Cu  0.02917554  0.04212093  0.41543086     1.04600
Cu66       Cu  0.49125291  0.48359476  0.41648914     1.04300
C67         C  0.45459573  0.01318371  0.41731169     0.93200
C68         C  0.07349371  0.01154464  0.41531863     0.92400
C69         C  0.01083911  0.00894894  0.37632278     0.84500
C70         C  0.01596778  0.01355097  0.45576840     0.90800
O71         O  0.43113640  0.20523749  0.41925158    -0.73000
O72         O  0.02106879  0.20399984  0.41933725    -0.74000
O73         O  0.47759583  0.20504247  0.44944922    -0.62600
O74         O  0.47531081  0.20457803  0.38850595    -0.71000
O75         O  0.00582328  0.26226677  0.38939617    -0.70500
O76         O  0.00549669  0.26258626  0.44947886    -0.61800
O77         O  0.05031105  0.26132579  0.41965142    -0.74300
O78         O  0.46056172  0.26256529  0.41879787    -0.73100
Cu79       Cu  0.47511705  0.20253089  0.41895153     1.04600
Cu80       Cu  0.00647748  0.26413287  0.41939583     1.04300
C81         C  0.43162702  0.23419108  0.41910794     0.93200
C82         C  0.04992665  0.23242794  0.41925788     0.92400
C83         C  0.49249943  0.23400763  0.45872654     0.84500
C84         C  0.49053083  0.23350200  0.37909231     0.90800
O85         O  0.23819292  0.47921523  0.38699228    -0.73000
O86         O  0.23856007  0.48084012  0.44702893    -0.74000
O87         O  0.19371861  0.48115430  0.41661341    -0.62600
O88         O  0.28326964  0.47933521  0.41737870    -0.71000
O89         O  0.32248798  0.03937106  0.41751215    -0.70500
O90         O  0.23127221  0.03850524  0.41687120    -0.61800
O91         O  0.27740336  0.04022866  0.44783051    -0.74300
O92         O  0.27560335  0.03685001  0.38690810    -0.73100
Cu93       Cu  0.23744499  0.47822397  0.41701957     1.04600
Cu94       Cu  0.27774959  0.04079720  0.41726600     1.04300
C95         C  0.26061961  0.00758584  0.37800673     0.93200
C96         C  0.26373225  0.01181945  0.45784402     0.92400
C97         C  0.20281972  0.00966748  0.41756278     0.84500
C98         C  0.32269006  0.01076169  0.41762789     0.90800
O99         O  0.22675771  0.20907451  0.38720048    -0.73000
O100        O  0.22688659  0.20468388  0.44769226    -0.74000
O101        O  0.18234655  0.20806171  0.41801389    -0.62600
O102        O  0.27107947  0.20508061  0.41681913    -0.71000
O103        O  0.30123150  0.26231726  0.41803359    -0.70500
O104        O  0.21208341  0.26530196  0.41929825    -0.61800
O105        O  0.25704344  0.26193842  0.44882553    -0.74300
O106        O  0.25669040  0.26622322  0.38854713    -0.73100
Cu107      Cu  0.22573509  0.20474953  0.41738677     1.04600
Cu108      Cu  0.25781177  0.26594348  0.41871439     1.04300
C109        C  0.24166144  0.23846356  0.37825556     0.93200
C110        C  0.24180780  0.23267131  0.45784038     0.92400
C111        C  0.18302154  0.23703713  0.41893547     0.84500
C112        C  0.30023580  0.23314410  0.41715942     0.90800
O113        O  0.02822414  0.47256299  0.08227877    -0.73000
O114        O  0.03853039  0.06812307  0.08324226    -0.74000
O115        O  0.04034556  0.02115232  0.11178832    -0.62600
O116        O  0.03592849  0.02428334  0.05150522    -0.71000
O117        O  0.46811233  0.49027430  0.05249814    -0.70500
O118        O  0.47313256  0.49048172  0.11292003    -0.61800
O119        O  0.48069338  0.03999090  0.08458861    -0.74300
O120        O  0.46954242  0.44434901  0.08228075    -0.73100
Cu121      Cu  0.04013066  0.02367440  0.08163082     1.04600
Cu122      Cu  0.46866912  0.48934573  0.08276528     1.04300
C123        C  0.49803416  0.44360328  0.08155070     0.93200
C124        C  0.50974355  0.06836557  0.08458807     0.92400
C125        C  0.51161566  0.00678707  0.12259381     0.84500
C126        C  0.50652450  0.01024872  0.04291805     0.90800
O127        O  0.03362524  0.22569491  0.08702028    -0.73000
O128        O  0.03291648  0.31575826  0.08441928    -0.74000
O129        O  0.03529052  0.27344330  0.11587900    -0.62600
O130        O  0.03138302  0.26777289  0.05564129    -0.71000
O131        O  0.47304885  0.23832941  0.05628564    -0.70500
O132        O  0.47699739  0.24473255  0.11670499    -0.61800
O133        O  0.47472619  0.28685068  0.08491891    -0.74300
O134        O  0.47545390  0.19650786  0.08805969    -0.73100
Cu135      Cu  0.03524675  0.27170677  0.08571023     1.04600
Cu136      Cu  0.47303316  0.24065575  0.08653789     1.04300
C137        C  0.50433982  0.19650478  0.08770416     0.93200
C138        C  0.50354895  0.31547360  0.08427619     0.92400
C139        C  0.50651232  0.25941033  0.12568143     0.84500
C140        C  0.50124243  0.25143896  0.04619676     0.90800
O141        O  0.21551255  0.47861704  0.05205440    -0.73000
O142        O  0.20757202  0.47613715  0.11250521    -0.74000
O143        O  0.20674849  0.02243567  0.08354209    -0.62600
O144        O  0.21162587  0.43251580  0.08284191    -0.71000
O145        O  0.26918587  0.46082902  0.08537946    -0.70500
O146        O  0.26416559  0.04910607  0.08652296    -0.61800
O147        O  0.25824691  0.00121949  0.11711358    -0.74300
O148        O  0.26701423  0.00457355  0.05695771    -0.73100
Cu149      Cu  0.20938838  0.47647125  0.08215351     1.04600
Cu150      Cu  0.26460596  0.00404073  0.08711582     1.04300
C151        C  0.23976540  0.99087924  0.04589104     0.93200
C152        C  0.22818938  0.98755319  0.12523945     0.92400
C153        C  0.23607348  0.05041769  0.08471314     0.84500
C154        C  0.24034720  0.43234800  0.08407312     0.90800
O155        O  0.26574965  0.20920675  0.08463674    -0.73000
O156        O  0.26906335  0.30127355  0.08712518    -0.74000
O157        O  0.26493640  0.25175728  0.11586899    -0.62600
O158        O  0.27006589  0.25912899  0.05563318    -0.71000
O159        O  0.21258011  0.23193639  0.05401511    -0.70500
O160        O  0.20737328  0.22561139  0.11443024    -0.61800
O161        O  0.21146188  0.27447132  0.08504500    -0.74300
O162        O  0.20818758  0.18266275  0.08342158    -0.73100
Cu163      Cu  0.26944871  0.25622783  0.08586084     1.04600
Cu164      Cu  0.20791291  0.22770313  0.08414938     1.04300
C165        C  0.23630354  0.18124791  0.08414598     0.93200
C166        C  0.24076431  0.30238096  0.08637924     0.92400
C167        C  0.23550493  0.23738109  0.12470858     0.84500
C168        C  0.24213715  0.24715505  0.04521011     0.90800
O169        O  0.02153066  0.07113667  0.91504967    -0.73000
O170        O  0.42709931  0.47993269  0.91592391    -0.74000
O171        O  0.47946028  0.02677348  0.94686328    -0.62600
O172        O  0.47371975  0.02648768  0.88628211    -0.71000
O173        O  0.00019677  0.49863243  0.88549961    -0.70500
O174        O  0.00473310  0.49853053  0.94585043    -0.61800
O175        O  0.45738547  0.45246784  0.91539439    -0.74300
O176        O  0.04915752  0.04134672  0.91360800    -0.73100
Cu177      Cu  0.47574193  0.02777551  0.91662844     1.04600
Cu178      Cu  0.00355859  0.49778695  0.91562530     1.04300
C179        C  0.05008415  0.07045894  0.91419012     0.93200
C180        C  0.42822455  0.45177891  0.91609560     0.92400
C181        C  0.99326015  0.01156622  0.95511194     0.84500
C182        C  0.98607737  0.01140803  0.87552586     0.90800
O183        O  0.02330288  0.22535381  0.95100077    -0.73000
O184        O  0.02915918  0.22416168  0.89049114    -0.74000
O185        O  0.06978797  0.27161136  0.92120626    -0.62600
O186        O  0.47974193  0.17808688  0.91952637    -0.71000
O187        O  0.44931481  0.20520730  0.91747680    -0.70500
O188        O  0.03759743  0.29693804  0.91906201    -0.61800
O189        O  0.49658909  0.25092843  0.88812930    -0.74300
O190        O  0.49030686  0.25150670  0.94849247    -0.73100
Cu191      Cu  0.02714513  0.22377170  0.92081289     1.04600
Cu192      Cu  0.49209534  0.25203530  0.91821913     1.04300
C193        C  0.50543152  0.23881120  0.95921257     0.93200
C194        C  0.51315903  0.23783637  0.87958867     0.92400
C195        C  0.06739534  0.29910955  0.92022071     0.84500
C196        C  0.45033902  0.17703875  0.91825645     0.90800
O197        O  0.26986795  0.47880742  0.88689236    -0.73000
O198        O  0.26605468  0.47913826  0.94750517    -0.74000
O199        O  0.22364525  0.43338630  0.91667007    -0.62600
O200        O  0.31622141  0.02059160  0.92120806    -0.71000
O201        O  0.28726144  0.04893797  0.91739813    -0.70500
O202        O  0.19295228  0.46034586  0.91538890    -0.61800
O203        O  0.23853526  0.00540930  0.94711092    -0.74300
O204        O  0.24448190  0.00172033  0.88705995    -0.73100
Cu205      Cu  0.26910178  0.47798668  0.91722893     1.04600
Cu206      Cu  0.24069425  0.00454165  0.91699774     1.04300
C207        C  0.26078671  0.98791640  0.87904218     0.93200
C208        C  0.25070612  0.99072975  0.95851201     0.92400
C209        C  0.19427687  0.43226421  0.91585059     0.84500
C210        C  0.31617381  0.04919403  0.91939205     0.90800
O211        O  0.22559520  0.27649468  0.94889523    -0.73000
O212        O  0.22265556  0.27753774  0.88814403    -0.74000
O213        O  0.17893342  0.23223934  0.91851584    -0.62600
O214        O  0.26924945  0.32220788  0.91809620    -0.71000
O215        O  0.29863867  0.29381238  0.91796802    -0.70500
O216        O  0.20791929  0.20372658  0.91724657    -0.61800
O217        O  0.25257721  0.24981137  0.88772643    -0.74300
O218        O  0.25401169  0.24733585  0.94793421    -0.73100
Cu219      Cu  0.22315961  0.27818982  0.91852111     1.04600
Cu220      Cu  0.25432357  0.24774145  0.91774874     1.04300
C221        C  0.23989560  0.26135970  0.95805874     0.93200
C222        C  0.23669475  0.26304139  0.87834770     0.92400
C223        C  0.17894683  0.20365333  0.91723372     0.84500
C224        C  0.29812486  0.32227041  0.91764408     0.90800
O225        O  0.01794269  0.03285248  0.61272725    -0.73000
O226        O  0.02215486  0.03633229  0.55246977    -0.74000
O227        O  0.47256205  0.03267248  0.58181327    -0.62600
O228        O  0.06531420  0.03442828  0.58359755    -0.71000
O229        O  0.03724671  0.48393298  0.58310769    -0.70500
O230        O  0.44594441  0.48199030  0.58067027    -0.61800
O231        O  0.49234477  0.48359211  0.55109257    -0.74300
O232        O  0.48899237  0.47967728  0.61128099    -0.73100
Cu233      Cu  0.02105339  0.03656903  0.58262773     1.04600
Cu234      Cu  0.48992200  0.47967537  0.58116456     1.04300
C235        C  0.00332329  0.00373632  0.62193459     0.93200
C236        C  0.00779233  0.00808133  0.54256941     0.92400
C237        C  0.44434210  0.00353381  0.58187629     0.84500
C238        C  0.06529318  0.00569792  0.58328609     0.90800
O239        O  0.43944441  0.21986676  0.58638917    -0.73000
O240        O  0.03059843  0.22189338  0.58633211    -0.74000
O241        O  0.48604755  0.22060364  0.61630570    -0.62600
O242        O  0.48233202  0.21625199  0.55596232    -0.71000
O243        O  0.01006801  0.27540829  0.55480367    -0.70500
O244        O  0.01645071  0.28128369  0.61554248    -0.61800
O245        O  0.05870475  0.27913556  0.58423829    -0.74300
O246        O  0.46854655  0.27691908  0.58549134    -0.73100
Cu247      Cu  0.48301076  0.21661358  0.58618977     1.04600
Cu248      Cu  0.01413088  0.28052437  0.58505830     1.04300
C249        C  0.43956336  0.24866419  0.58604427     0.93200
C250        C  0.05902940  0.25063939  0.58494266     0.92400
C251        C  0.50186403  0.24966852  0.62539039     0.84500
C252        C  0.49612047  0.24424270  0.54567992     0.90800
O253        O  0.28871603  0.48473258  0.58221762    -0.73000
O254        O  0.19965993  0.48749495  0.58487223    -0.74000
O255        O  0.24157204  0.48548538  0.55331741    -0.62600
O256        O  0.24653428  0.48610793  0.61360074    -0.71000
O257        O  0.27325837  0.03356298  0.61667650    -0.70500
O258        O  0.27233300  0.04041521  0.55607879    -0.61800
O259        O  0.22774505  0.03825008  0.58746101    -0.74300
O260        O  0.31694365  0.03586246  0.58494250    -0.73100
Cu261      Cu  0.24306060  0.48394788  0.58351104     1.04600
Cu262      Cu  0.27350565  0.03901450  0.58641426     1.04300
C263        C  0.31605014  0.00685334  0.58362881     0.93200
C264        C  0.19868130  0.01007863  0.58652398     0.92400
C265        C  0.25829219  0.01286388  0.54552981     0.84500
C266        C  0.25827744  0.00386576  0.62526038     0.90800
O267        O  0.22987697  0.21022146  0.55552831    -0.73000
O268        O  0.22995471  0.21685505  0.61617354    -0.74000
O269        O  0.18497858  0.21380151  0.58483417    -0.62600
O270        O  0.27519560  0.21319154  0.58696323    -0.71000
O271        O  0.30393141  0.27013769  0.58482372    -0.70500
O272        O  0.21411746  0.27100091  0.58238772    -0.61800
O273        O  0.25877191  0.27371028  0.61347372    -0.74300
O274        O  0.25919193  0.26744120  0.55356349    -0.73100
Cu275      Cu  0.22899806  0.21146477  0.58592968     1.04600
Cu276      Cu  0.25998666  0.27246619  0.58346913     1.04300
C277        C  0.24500179  0.23798208  0.54499740     0.93200
C278        C  0.24391789  0.24668269  0.62447222     0.92400
C279        C  0.18531933  0.24260225  0.58374930     0.84500
C280        C  0.30407084  0.24154689  0.58616049     0.90800
O281        O  0.00131295  0.49364253  0.71942881    -0.73000
O282        O  0.00019836  0.49438820  0.77968244    -0.74000
O283        O  0.45741120  0.44854853  0.74901702    -0.62600
O284        O  0.04941884  0.03614585  0.74951390    -0.71000
O285        O  0.02107445  0.06536094  0.74789577    -0.70500
O286        O  0.42773912  0.47655066  0.74810061    -0.61800
O287        O  0.47345074  0.02269742  0.77884611    -0.74300
O288        O  0.47571794  0.01989381  0.71844763    -0.73100
Cu289      Cu  0.00156209  0.49280270  0.74960426     1.04600
Cu290      Cu  0.47356622  0.02231714  0.74853812     1.04300
C291        C  0.48858615  0.50754309  0.70837260     0.93200
C292        C  0.48790364  0.00889412  0.78916817     0.92400
C293        C  0.42834249  0.44812213  0.74900770     0.84500
C294        C  0.04980788  0.06502077  0.74863322     0.90800
O295        O  0.05031340  0.30534752  0.75326860    -0.73000
O296        O  0.46024124  0.21394035  0.75483248    -0.74000
O297        O  0.50889064  0.25877510  0.78371162    -0.62600
O298        O  0.50115746  0.25969663  0.72343624    -0.71000
O299        O  0.02968932  0.23206917  0.72144440    -0.70500
O300        O  0.03882988  0.23141464  0.78202869    -0.61800
O301        O  0.48948477  0.18565205  0.75304720    -0.74300
O302        O  0.07935377  0.27721257  0.75000319    -0.73100
Cu303      Cu  0.50422338  0.26026841  0.75366840     1.04600
Cu304      Cu  0.03529741  0.23080761  0.75161430     1.04300
C305        C  0.07920373  0.30580331  0.75089103     0.93200
C306        C  0.46054470  0.18535565  0.75444715     0.92400
C307        C  0.52437665  0.24442699  0.79242890     0.84500
C308        C  0.51430176  0.24540099  0.71269656     0.90800
O309        O  0.29790724  0.05601205  0.75359942    -0.73000
O310        O  0.20290947  0.47076527  0.74796840    -0.74000
O311        O  0.25100028  0.00760918  0.78237010    -0.62600
O312        O  0.25403625  0.01299126  0.72198188    -0.71000
O313        O  0.27981214  0.49183110  0.71910047    -0.70500
O314        O  0.27505540  0.48598577  0.77976026    -0.61800
O315        O  0.23326453  0.44365245  0.74768445    -0.74300
O316        O  0.32787830  0.02839412  0.75326523    -0.73100
Cu317      Cu  0.25189330  0.01151642  0.75220847     1.04600
Cu318      Cu  0.27859765  0.48777534  0.74939952     1.04300
C319        C  0.32716791  0.05677790  0.75366933     0.93200
C320        C  0.20385470  0.44252104  0.74735798     0.92400
C321        C  0.26475346  0.99224937  0.79178437     0.84500
C322        C  0.26931300  0.99991734  0.71207035     0.90800
O323        O  0.25027055  0.24729118  0.78284007    -0.73000
O324        O  0.25321510  0.24109779  0.72268910    -0.74000
O325        O  0.29707559  0.29028539  0.75225780    -0.62600
O326        O  0.20692331  0.19885267  0.75316112    -0.71000
O327        O  0.17766034  0.22696695  0.74986215    -0.70500
O328        O  0.26718037  0.31786062  0.74939445    -0.61800
O329        O  0.22420930  0.26969028  0.71956159    -0.74300
O330        O  0.22043217  0.27491776  0.77989224    -0.73100
Cu331      Cu  0.25297858  0.24347928  0.75287379     1.04600
Cu332      Cu  0.22139335  0.27334238  0.74959339     1.04300
C333        C  0.23476941  0.26187800  0.79095458     0.93200
C334        C  0.23867057  0.25393658  0.71164559     0.92400
C335        C  0.29636826  0.31860726  0.75050172     0.84500
C336        C  0.17789977  0.19849033  0.75152094     0.90800
C337        C  0.39797216  0.15132769  0.74552676    -0.05800
C338        C  0.42683518  0.15201125  0.75495710     0.00100
C339        C  0.42239496  0.12157285  0.76472307    -0.08500
C340        C  0.38943825  0.09129184  0.76393509    -0.05800
C341        C  0.36062017  0.09049651  0.75426791     0.00100
C342        C  0.36490382  0.12130780  0.74502921    -0.08400
C343        C  0.33518317  0.12280111  0.73429557     0.62000
H344        H  0.40165005  0.17479081  0.73831126     0.12700
H345        H  0.38584470  0.06781253  0.77109281     0.12700
C346        C  0.45169970  0.12110544  0.77657767     0.62300
F347        F  0.34626083  0.15416963  0.72459207    -0.22900
F348        F  0.31014177  0.11864157  0.74808668    -0.20200
F349        F  0.32054051  0.09703641  0.71996195    -0.19900
F350        F  0.46543728  0.14795695  0.79028865    -0.20000
F351        F  0.47757387  0.12454152  0.76365911    -0.20300
F352        F  0.44023080  0.09048391  0.78720171    -0.23000
C353        C  0.10869374  0.36913068  0.74418903    -0.05800
C354        C  0.11208290  0.33997274  0.74883733     0.00100
C355        C  0.14615732  0.34464145  0.75121481    -0.08500
C356        C  0.17481324  0.37851833  0.75069824    -0.05800
C357        C  0.17131401  0.40784947  0.74687335     0.00100
C358        C  0.13756940  0.40280309  0.74261536    -0.08400
C359        C  0.13157685  0.43221420  0.73593943     0.62000
H360        H  0.08285621  0.36536003  0.74160530     0.12700
H361        H  0.20060323  0.38225631  0.75337186     0.12700
C362        C  0.15297156  0.31454644  0.75416778     0.62300
F363        F  0.09748020  0.42037895  0.72991199    -0.22900
F364        F  0.15275205  0.44944349  0.71973830    -0.20200
F365        F  0.13873405  0.45501286  0.75163985    -0.19900
F366        F  0.14102095  0.29308374  0.73758157    -0.20000
F367        F  0.13639255  0.29607743  0.77128389    -0.20300
F368        F  0.18810687  0.32550558  0.75630817    -0.23000
C369        C  0.36716785  0.41136780  0.73795064    -0.05800
C370        C  0.39501877  0.41462202  0.74978917     0.00100
C371        C  0.39004731  0.38652353  0.76230400    -0.08500
C372        C  0.35750774  0.35576865  0.76197290    -0.05800
C373        C  0.32965593  0.35237086  0.74999866     0.00100
C374        C  0.33454734  0.38078947  0.73775022    -0.08400
C375        C  0.30609740  0.37877573  0.72393259     0.62000
H376        H  0.37133309  0.43314387  0.72862561     0.12700
H377        H  0.35341848  0.33405553  0.77133083     0.12700
C378        C  0.41834319  0.38925207  0.77655697     0.62300
F379        F  0.31803714  0.40742776  0.71143442    -0.22900
F380        F  0.27908738  0.37693506  0.73519678    -0.20200
F381        F  0.29384736  0.34986937  0.71189400    -0.19900
F382        F  0.43031139  0.41860544  0.78826530    -0.20000
F383        F  0.44566363  0.39090765  0.76570905    -0.20300
F384        F  0.40624774  0.36099802  0.78937779    -0.23000
C385        C  0.08269382  0.12726725  0.75733342    -0.05800
C386        C  0.08333118  0.09859611  0.74907992     0.00100
C387        C  0.11520590  0.10317955  0.74129500    -0.08500
C388        C  0.14531350  0.13606488  0.74274489    -0.05800
C389        C  0.14460930  0.16473131  0.75098932     0.00100
C390        C  0.11253279  0.16031837  0.75830562    -0.08400
C391        C  0.10942546  0.18991832  0.76741837     0.62000
H392        H  0.05825987  0.12355837  0.76310897     0.12700
H393        H  0.16981281  0.13979630  0.73705409     0.12700
C394        C  0.11757700  0.07415812  0.73083578     0.62300
F395        F  0.07692696  0.17867364  0.77573459    -0.22900
F396        F  0.11435683  0.21402114  0.75268549    -0.20200
F397        F  0.13397607  0.20550061  0.78252022    -0.19900
F398        F  0.09246151  0.06002858  0.71589432    -0.20000
F399        F  0.11278066  0.04878090  0.74463252    -0.20300
F400        F  0.14970129  0.08580552  0.72190138    -0.23000
C401        C  0.22797115  0.21891481  0.65839914    -0.05800
C402        C  0.24252083  0.24967898  0.64687962     0.00100
C403        C  0.25421592  0.28180185  0.65707292    -0.08500
C404        C  0.25212816  0.28162624  0.67818909    -0.05800
C405        C  0.23901208  0.25114840  0.68949102     0.00100
C406        C  0.22567359  0.21906416  0.67952301    -0.08400
C407        C  0.20774440  0.18509638  0.69109597     0.62000
H408        H  0.21831290  0.19443322  0.65075999     0.12700
H409        H  0.26104350  0.30558825  0.68619863     0.12700
C410        C  0.26855138  0.31640275  0.64616980     0.62300
F411        F  0.19205754  0.15685858  0.67838535    -0.22900
F412        F  0.18215455  0.18439284  0.70324769    -0.20200
F413        F  0.23174883  0.18170164  0.70289535    -0.19900
F414        F  0.24399954  0.31522078  0.63268351    -0.20000
F415        F  0.29881817  0.32391394  0.63616208    -0.20300
F416        F  0.27660555  0.34344953  0.65925324    -0.23000
C417        C  0.23463584  0.98677365  0.68080251    -0.05800
C418        C  0.26765544  0.00001346  0.68975852     0.00100
C419        C  0.29517472  0.51391204  0.67559475    -0.08500
C420        C  0.29314972  0.51610847  0.65449873    -0.05800
C421        C  0.26028462  0.00149651  0.64745412     0.00100
C422        C  0.23030185  0.98649671  0.65977819    -0.08400
C423        C  0.19395137  0.97077473  0.65081744     0.62000
H424        H  0.21206564  0.97611549  0.69050479     0.12700
H425        H  0.31422610  0.51870741  0.64511019     0.12700
C426        C  0.32807304  0.51722319  0.68504819     0.62300
F427        F  0.18068625  0.50857216  0.66102494    -0.22900
F428        F  0.18833668  0.48321329  0.63407350    -0.20200
F429        F  0.19124792  0.99506482  0.63905233    -0.19900
F430        F  0.32099798  0.48604485  0.69366863    -0.20000
F431        F  0.34033539  0.05248869  0.70036407    -0.20300
F432        F  0.35935520  0.04161305  0.67171135    -0.23000
C433        C  0.36856999  0.27450473  0.58437209    -0.05800
C434        C  0.33818091  0.24207378  0.58652064     0.00100
C435        C  0.34162969  0.21208492  0.58882743    -0.08500
C436        C  0.37519504  0.21602057  0.58856271    -0.05800
C437        C  0.40558101  0.24841134  0.58631773     0.00100
C438        C  0.40218144  0.27849402  0.58435868    -0.08400
C439        C  0.43329176  0.31487092  0.58231212     0.62000
H440        H  0.36589104  0.29725216  0.58266916     0.12700
H441        H  0.37783609  0.19324251  0.59018470     0.12700
C442        C  0.31059768  0.17586763  0.59166356     0.62300
F443        F  0.42336425  0.33980345  0.58051975    -0.22900
F444        F  0.45209681  0.31707534  0.56530625    -0.20200
F445        F  0.45432279  0.32282362  0.59919419    -0.19900
F446        F  0.28920355  0.16661123  0.57488269    -0.20000
F447        F  0.29217437  0.17497242  0.60859020    -0.20300
F448        F  0.32060182  0.15112283  0.59427729    -0.23000
C449        C  0.09461718  0.22567438  0.59680731    -0.05800
C450        C  0.09224567  0.25028809  0.58459805     0.00100
C451        C  0.12057862  0.27236191  0.57206889    -0.08500
C452        C  0.15021372  0.26845616  0.57208903    -0.05800
C453        C  0.15241929  0.24357813  0.58415707     0.00100
C454        C  0.12438100  0.22206958  0.59703436    -0.08400
C455        C  0.12599218  0.19620726  0.61146588     0.62000
H456        H  0.07277692  0.20924974  0.60637433     0.12700
H457        H  0.17209648  0.28490815  0.56256051     0.12700
C458        C  0.11948891  0.29933295  0.55838597     0.62300
F459        F  0.09794302  0.18184183  0.62448117    -0.22900
F460        F  0.15601769  0.21248822  0.62299875    -0.20200
F461        F  0.12561622  0.16951011  0.60076889    -0.19900
F462        F  0.11890138  0.32482864  0.56984818    -0.20000
F463        F  0.09014537  0.28390113  0.54625460    -0.20300
F464        F  0.14831923  0.31516756  0.54599327    -0.23000
C465        C  0.50823463  0.22287546  0.65666218    -0.05800
C466        C  0.50496876  0.24986413  0.64776288     0.00100
C467        C  0.02638095  0.28439720  0.66034965    -0.08500
C468        C  0.02768243  0.28099052  0.68145569    -0.05800
C469        C  0.51126557  0.24581132  0.69025112     0.00100
C470        C  0.51119824  0.22013426  0.67761419    -0.08400
C471        C  0.51342412  0.18936512  0.68593719     0.62000
H472        H  0.50890102  0.20386190  0.64689584     0.12700
H473        H  0.04144530  0.30375453  0.69078004     0.12700
C474        C  0.04596757  0.32042582  0.65110545     0.62300
F475        F  0.50792769  0.16536663  0.67117539    -0.22900
F476        F  0.48832429  0.17267923  0.70054269    -0.20200
F477        F  0.54613557  0.20050133  0.69407436    -0.19900
F478        F  0.02292160  0.32807343  0.64127759    -0.20000
F479        F  0.07054224  0.32210394  0.63770842    -0.20300
F480        F  0.06341316  0.34573620  0.66547217    -0.23000
C481        C  0.35761128  0.49624383  0.59622726    -0.05800
C482        C  0.34873376  0.00591995  0.58241450     0.00100
C483        C  0.37428427  0.02472682  0.56766431    -0.08500
C484        C  0.40514712  0.02299173  0.56790106    -0.05800
C485        C  0.41063716  0.00268804  0.58209087     0.00100
C486        C  0.38904181  0.49568548  0.59717149    -0.08400
C487        C  0.39752505  0.48085557  0.61562456     0.62000
H488        H  0.33874011  0.48472812  0.60821681     0.12700
H489        H  0.42531955  0.03747799  0.55694731     0.12700
C490        C  0.36856592  0.04563944  0.55143076     0.62300
F491        F  0.37194633  0.47029582  0.63015468    -0.22900
F492        F  0.42849112  0.50588525  0.62401871    -0.20200
F493        F  0.40068284  0.45255943  0.61037274    -0.19900
F494        F  0.36838326  0.07380159  0.55991672    -0.20000
F495        F  0.33708980  0.02515481  0.54180846    -0.20300
F496        F  0.39449751  0.05785413  0.53704366    -0.23000
C497        C  0.12706081  0.03346371  0.59392040    -0.05800
C498        C  0.09893822  0.00580799  0.58401234     0.00100
C499        C  0.10254080  0.48137087  0.58708132    -0.08500
C500        C  0.13583191  0.48466299  0.58745582    -0.05800
C501        C  0.16513995  0.01029601  0.58609669     0.00100
C502        C  0.16022194  0.03642130  0.59509398    -0.08400
C503        C  0.18932886  0.06721354  0.60603826     0.62000
H504        H  0.12281091  0.05300723  0.60081692     0.12700
H505        H  0.13791035  0.46148068  0.58821537     0.12700
C506        C  0.07093494  0.44511483  0.58796786     0.62300
F507        F  0.17744657  0.08694001  0.61553804    -0.22900
F508        F  0.21460770  0.08843291  0.59245791    -0.20200
F509        F  0.20395146  0.05592828  0.62058201    -0.19900
F510        F  0.05208121  0.43820778  0.57025338    -0.20000
F511        F  0.05016284  0.44235975  0.60409184    -0.20300
F512        F  0.08016481  0.41977214  0.59040532    -0.23000
C513        C  0.00284392  0.98183771  0.67757765    -0.05800
C514        C  0.49042558  0.50780082  0.68597554     0.00100
C515        C  0.49065149  0.53417244  0.67363783    -0.08500
C516        C  0.49495355  0.53304950  0.65275044    -0.05800
C517        C  0.00072306  0.00315499  0.64414893     0.00100
C518        C  0.00652471  0.98056191  0.65661960    -0.08400
C519        C  0.01778756  0.95611820  0.64799766     0.62000
H520        H  0.00676481  0.96430977  0.68718254     0.12700
H521        H  0.49511002  0.55289764  0.64316104     0.12700
C522        C  0.48685937  0.56372778  0.68219679     0.62300
F523        F  0.02725072  0.94050322  0.66294304    -0.22900
F524        F  0.04623770  0.97424684  0.63556984    -0.20200
F525        F  0.98137605  0.43370088  0.63661672    -0.19900
F526        F  0.49907991  0.07464347  0.69540941    -0.20000
F527        F  0.45405955  0.55085546  0.69039117    -0.20300
F528        F  0.49078527  0.58774985  0.66759310    -0.23000
C529        C  0.23537286  0.28946796  0.84552395    -0.05800
C530        C  0.23457793  0.26155421  0.85600882     0.00100
C531        C  0.23111105  0.23275522  0.84501209    -0.08500
C532        C  0.23100209  0.23415015  0.82388213    -0.05800
C533        C  0.23306129  0.26255580  0.81331960     0.00100
C534        C  0.23444779  0.29048887  0.82431933    -0.08400
C535        C  0.23575876  0.32162813  0.81392196     0.62000
H536        H  0.23719858  0.31085486  0.85415055     0.12700
H537        H  0.22923382  0.21270330  0.81534210     0.12700
C538        C  0.22649470  0.20009759  0.85532539     0.62300
F539        F  0.24026830  0.34700481  0.82748471    -0.22900
F540        F  0.20485898  0.31151299  0.80369317    -0.20200
F541        F  0.26325590  0.33610111  0.80056314    -0.19900
F542        F  0.20065112  0.18910958  0.86970862    -0.20000
F543        F  0.25742659  0.20653404  0.86430794    -0.20300
F544        F  0.21686900  0.17324648  0.84185316    -0.23000
C545        C  0.29304714  0.99740728  0.82490131    -0.05800
C546        C  0.26258900  0.98939433  0.81408304     0.00100
C547        C  0.22631667  0.48917692  0.82233223    -0.08500
C548        C  0.22694228  0.48762839  0.84349198    -0.05800
C549        C  0.26246774  0.98712520  0.85673664     0.00100
C550        C  0.29370547  0.99679331  0.84610943    -0.08400
C551        C  0.32793193  0.00800832  0.85700379     0.62000
H552        H  0.31670406  0.00505668  0.81653013     0.12700
H553        H  0.20397729  0.48233638  0.85195518     0.12700
C554        C  0.19295831  0.48247619  0.81172361     0.62300
F555        F  0.35564281  0.01995435  0.84381756    -0.22900
F556        F  0.32626514  0.98034492  0.86751968    -0.20200
F557        F  0.33456913  0.03446748  0.87020778    -0.19900
F558        F  0.18431199  0.45786297  0.79688432    -0.20000
F559        F  0.19743326  0.51285182  0.80320501    -0.20300
F560        F  0.16516406  0.47034235  0.82487216    -0.23000
C561        C  0.37886621  0.08264384  0.91012836    -0.05800
C562        C  0.35007745  0.08248475  0.91914938     0.00100
C563        C  0.35466827  0.11359018  0.92778056    -0.08500
C564        C  0.38798177  0.14327677  0.92738290    -0.05800
C565        C  0.41673251  0.14351156  0.91832941     0.00100
C566        C  0.41195994  0.11275530  0.90912713    -0.08400
C567        C  0.44098108  0.11181262  0.89756858     0.62000
H568        H  0.37507934  0.05886596  0.90350461     0.12700
H569        H  0.39182687  0.16695140  0.93418888     0.12700
C570        C  0.32492863  0.11573187  0.93766476     0.62300
F571        F  0.42916987  0.08092486  0.88737218    -0.22900
F572        F  0.46697392  0.11544925  0.91068606    -0.20200
F573        F  0.45467537  0.13831514  0.88350935    -0.19900
F574        F  0.30934465  0.08997618  0.95205333    -0.20000
F575        F  0.30060867  0.11203990  0.92326303    -0.20300
F576        F  0.33622139  0.14721942  0.94707185    -0.23000
C577        C  0.12656303  0.33742622  0.90707251    -0.05800
C578        C  0.09938448  0.33361580  0.91950707     0.00100
C579        C  0.10305065  0.36270937  0.93026047    -0.08500
C580        C  0.13415821  0.39456846  0.92822863    -0.05800
C581        C  0.16162554  0.39820816  0.91609846     0.00100
C582        C  0.15747212  0.36937224  0.90487034    -0.08400
C583        C  0.18463284  0.37251315  0.88984851     0.62000
H584        H  0.12308246  0.31510643  0.89872940     0.12700
H585        H  0.13739421  0.41697702  0.93631133     0.12700
C586        C  0.07487127  0.36014531  0.94428696     0.62300
F587        F  0.17249962  0.34321160  0.87805624    -0.22900
F588        F  0.21409714  0.37706653  0.89986177    -0.20200
F589        F  0.19331373  0.40039980  0.87715681    -0.19900
F590        F  0.06535394  0.33289255  0.95760424    -0.20000
F591        F  0.04608800  0.35498700  0.93324095    -0.20300
F592        F  0.08607440  0.39000324  0.95545217    -0.23000
C593        C  0.04745433  0.24433455  0.84850498    -0.05800
C594        C  0.51547999  0.23812530  0.85725558     0.00100
C595        C  0.48645801  0.23028142  0.84469812    -0.08500
C596        C  0.49088534  0.23236205  0.82372906    -0.05800
C597        C  0.52297873  0.24154506  0.81478022     0.00100
C598        C  0.05160561  0.24645010  0.82738315    -0.08400
C599        C  0.08672642  0.25591240  0.81845320     0.62000
H600        H  0.06924091  0.24930193  0.85818868     0.12700
H601        H  0.46898450  0.22687016  0.81401244     0.12700
C602        C  0.45062524  0.21909588  0.85324143     0.62300
F603        F  0.11169919  0.26303803  0.83317250    -0.22900
F604        F  0.09816118  0.28500662  0.80643501    -0.20200
F605        F  0.08387154  0.22875060  0.80708255    -0.19900
F606        F  0.45055437  0.24702803  0.86214360    -0.20000
F607        F  0.44187363  0.19307695  0.86734622    -0.20300
F608        F  0.42512235  0.20647174  0.83845875    -0.23000
C609        C  0.36961302  0.41227619  0.90249162    -0.05800
C610        C  0.39542050  0.41820167  0.91680121     0.00100
C611        C  0.38927440  0.39238394  0.93138989    -0.08500
C612        C  0.35706922  0.36135885  0.93114454    -0.05800
C613        C  0.33125067  0.35551117  0.91684127     0.00100
C614        C  0.33778884  0.38095315  0.90193503    -0.08400
C615        C  0.31215989  0.37437516  0.88489177     0.62000
H616        H  0.37488517  0.43226632  0.89146412     0.12700
H617        H  0.35164029  0.34138664  0.94224759     0.12700
C618        C  0.41609102  0.39792265  0.94749749     0.62300
F619        F  0.32564485  0.40069367  0.87069094    -0.22900
F620        F  0.28195507  0.37197139  0.89232800    -0.20200
F621        F  0.30429689  0.34385370  0.87529205    -0.19900
F622        F  0.42567348  0.42838342  0.95766542    -0.20000
F623        F  0.44517162  0.39966871  0.93875589    -0.20300
F624        F  0.40326944  0.37121491  0.96144728    -0.23000
C625        C  0.08369864  0.13403145  0.90800771    -0.05800
C626        C  0.08409422  0.10380398  0.91398648     0.00100
C627        C  0.11641719  0.10664165  0.91994494    -0.08500
C628        C  0.14615445  0.13976284  0.92110260    -0.05800
C629        C  0.14552883  0.17003858  0.91570559     0.00100
C630        C  0.11390056  0.16697054  0.90818343    -0.08400
C631        C  0.11181842  0.19773210  0.89963285     0.62000
H632        H  0.05929108  0.13165011  0.90293983     0.12700
H633        H  0.17052705  0.14223695  0.92629325     0.12700
C634        C  0.12014914  0.07528479  0.92513737     0.62300
F635        F  0.08008895  0.18770094  0.89035871    -0.22900
F636        F  0.13750033  0.21457590  0.88533953    -0.20200
F637        F  0.11590201  0.22043389  0.91487351    -0.19900
F638        F  0.11211181  0.05425411  0.90843932    -0.20000
F639        F  0.09824767  0.05699471  0.94085020    -0.20300
F640        F  0.15375999  0.08446914  0.93095896    -0.23000
C641        C  0.01736194  0.02258273  0.84338137    -0.05800
C642        C  0.98566955  0.01194515  0.85323205     0.00100
C643        C  0.45609658  0.50858430  0.84094596    -0.08500
C644        C  0.45849979  0.50801306  0.81984862    -0.05800
C645        C  0.48834213  0.01077888  0.81139545     0.00100
C646        C  0.01947904  0.02233736  0.82229081    -0.08400
C647        C  0.05473507  0.03545380  0.81241880     0.62000
H648        H  0.04063940  0.03106259  0.85244760     0.12700
H649        H  0.43710149  0.50533221  0.81054318     0.12700
C650        C  0.42291927  0.50428013  0.85024227     0.62300
F651        F  0.08178697  0.05111405  0.82616184    -0.22900
F652        F  0.05971582  0.05966758  0.79773397    -0.20200
F653        F  0.05641797  0.00814692  0.80381831    -0.19900
F654        F  0.42967239  0.53453753  0.85971804    -0.20000
F655        F  0.41004816  0.47739496  0.86401999    -0.20300
F656        F  0.39724858  0.49671670  0.83593152    -0.23000
C657        C  0.26883202  0.25870942  0.98963367    -0.05800
C658        C  0.24056422  0.25976573  0.98049657     0.00100
C659        C  0.21341685  0.25743965  0.99283932    -0.08500
C660        C  0.21534304  0.25333316  0.01374966    -0.05800
C661        C  0.24339654  0.25191916  0.02289728     0.00100
C662        C  0.27104171  0.25513731  0.01060984    -0.08400
C663        C  0.30248300  0.25414738  0.01926150     0.62000
H664        H  0.28955220  0.26092369  0.98008365     0.12700
H665        H  0.19479560  0.25159234  0.02326792     0.12700
C666        C  0.18207585  0.25856643  0.98419515     0.62300
F667        F  0.32423766  0.25428733  0.00435101    -0.22900
F668        F  0.29163592  0.22437949  0.03061216    -0.20200
F669        F  0.32181536  0.28290717  0.03114985    -0.19900
F670        F  0.16619333  0.23350706  0.96954936    -0.20000
F671        F  0.19260341  0.29089819  0.97598083    -0.20300
F672        F  0.15744193  0.25250037  0.99874397    -0.23000
C673        C  0.22198025  0.34137044  0.07140104    -0.05800
C674        C  0.24162695  0.33610052  0.08623621     0.00100
C675        C  0.26074277  0.36249097  0.10048052    -0.08500
C676        C  0.25996547  0.39372716  0.09906636    -0.05800
C677        C  0.24019580  0.39893983  0.08425306     0.00100
C678        C  0.22098338  0.37243705  0.07004967    -0.08400
C679        C  0.20037063  0.37716857  0.05313392     0.62000
H680        H  0.20750221  0.32083510  0.06069869     0.12700
H681        H  0.27437392  0.41422649  0.10979652     0.12700
C682        C  0.28058918  0.35717769  0.11759255     0.62300
F683        F  0.18783296  0.35021348  0.03949282    -0.22900
F684        F  0.22142019  0.40753295  0.04277713    -0.20200
F685        F  0.17214841  0.37842867  0.06092825    -0.19900
F686        F  0.30827031  0.35465395  0.11006010    -0.20000
F687        F  0.25863222  0.32717240  0.12801081    -0.20300
F688        F  0.29373327  0.38436769  0.13108357    -0.23000
C689        C  0.26132767  0.14463074  0.07406199    -0.05800
C690        C  0.23508533  0.14718419  0.08435703     0.00100
C691        C  0.20942461  0.11782381  0.09499692    -0.08500
C692        C  0.21084676  0.08689419  0.09459905    -0.05800
C693        C  0.23710905  0.08437435  0.08432372     0.00100
C694        C  0.26276383  0.11370173  0.07371209    -0.08400
C695        C  0.29090909  0.11227604  0.06148679     0.62000
H696        H  0.28075525  0.16723326  0.06607624     0.12700
H697        H  0.19139117  0.06424530  0.10253680     0.12700
C698        C  0.18115904  0.11906083  0.10723609     0.62300
F699        F  0.30985571  0.14201916  0.05013753    -0.22900
F700        F  0.27593032  0.08453022  0.04841108    -0.20200
F701        F  0.31387977  0.10879933  0.07419727    -0.19900
F702        F  0.15807326  0.12234580  0.09452185    -0.20000
F703        F  0.19592130  0.14676551  0.12033796    -0.20300
F704        F  0.16236024  0.08929948  0.11859052    -0.23000
C705        C  0.21919009  0.48922690  0.01016469    -0.05800
C706        C  0.24295442  0.99029440  0.02364048     0.00100
C707        C  0.26785216  0.98391557  0.01415840    -0.08500
C708        C  0.26951330  0.98464337  0.99298588    -0.05800
C709        C  0.24667705  0.99052194  0.98089700     0.00100
C710        C  0.21845863  0.48861161  0.98900985    -0.08400
C711        C  0.18551739  0.48243055  0.97813963     0.62000
H712        H  0.19695959  0.48692498  0.01821489     0.12700
H713        H  0.28911258  0.98079122  0.98569148     0.12700
C714        C  0.29182557  0.97509196  0.02618007     0.62300
F715        F  0.15827612  0.47381747  0.99130298    -0.22900
F716        F  0.17511071  0.45538237  0.96478297    -0.20200
F717        F  0.19154642  0.51200840  0.96787239    -0.19900
F718        F  0.27262117  0.94887922  0.03980755    -0.20000
F719        F  0.31640779  0.00402702  0.03636112    -0.20300
F720        F  0.30933578  0.96380319  0.01394392    -0.23000
C721        C  0.02985148  0.24603921  0.01574425    -0.05800
C722        C  0.50062218  0.24735633  0.02392312     0.00100
C723        C  0.47360226  0.24505811  0.01120506    -0.08500
C724        C  0.47617035  0.24175798  0.99029454    -0.05800
C725        C  0.50445587  0.24050269  0.98162828     0.00100
C726        C  0.03258425  0.24241459  0.99492095    -0.08400
C727        C  0.06416149  0.24114783  0.98711097     0.62000
H728        H  0.04987800  0.24730432  0.02574799     0.12700
H729        H  0.45571860  0.23993041  0.98044846     0.12700
C730        C  0.44255347  0.24688416  0.01938398     0.62300
F731        F  0.08803599  0.24661800  0.00223586    -0.22900
F732        F  0.08096239  0.26655210  0.97266432    -0.20200
F733        F  0.05376602  0.20895386  0.97895201    -0.19900
F734        F  0.45395155  0.27617466  0.03107597    -0.20000
F735        F  0.42204508  0.21773066  0.03082474    -0.20300
F736        F  0.42186876  0.24846217  0.00414082    -0.23000
C737        C  0.47503840  0.34925680  0.07386731    -0.05800
C738        C  0.50328662  0.34891176  0.08353208     0.00100
C739        C  0.03035734  0.38038221  0.09316564    -0.08500
C740        C  0.02717374  0.41031100  0.09240624    -0.05800
C741        C  0.49817233  0.41015644  0.08189842     0.00100
C742        C  0.47209946  0.37937785  0.07267014    -0.08400
C743        C  0.44186058  0.37831612  0.06105032     0.62000
H744        H  0.45521145  0.32555819  0.06701224     0.12700
H745        H  0.04705395  0.43390389  0.09932567     0.12700
C746        C  0.06158261  0.38206632  0.10400044     0.62300
F747        F  0.42254178  0.34731942  0.05097228    -0.22900
F748        F  0.45428052  0.40468036  0.04689878    -0.20200
F749        F  0.41981270  0.38204091  0.07413182    -0.19900
F750        F  0.08273288  0.37812047  0.09032547    -0.20000
F751        F  0.05044068  0.35626481  0.11845669    -0.20300
F752        F  0.08160519  0.41345087  0.11358871    -0.23000
C753        C  0.03197548  0.16289469  0.07655316    -0.05800
C754        C  0.50510582  0.16333235  0.08768181     0.00100
C755        C  0.48082484  0.13313019  0.09825183    -0.08500
C756        C  0.48350168  0.10291717  0.09680435    -0.05800
C757        C  0.50990789  0.10196080  0.08565348     0.00100
C758        C  0.03483680  0.13281913  0.07511860    -0.08400
C759        C  0.06382121  0.13384184  0.06246786     0.62000
H760        H  0.05040047  0.18617368  0.06867853     0.12700
H761        H  0.46490714  0.07960615  0.10458967     0.12700
C762        C  0.45286483  0.13280041  0.11155075     0.62300
F763        F  0.08188979  0.16465456  0.05191964    -0.22900
F764        F  0.05005687  0.10721741  0.04861654    -0.20200
F765        F  0.08737669  0.13059865  0.07479763    -0.19900
F766        F  0.42832367  0.13544634  0.09983789    -0.20000
F767        F  0.46778836  0.16016763  0.12488594    -0.20300
F768        F  0.43572567  0.10256649  0.12271708    -0.23000
C769        C  0.51394857  0.50189285  0.98635110    -0.05800
C770        C  0.99597338  0.01162382  0.97736817     0.00100
C771        C  0.96682880  0.00057588  0.99008147    -0.08500
C772        C  0.97176159  0.00088724  0.01105034    -0.05800
C773        C  0.00464877  0.01133942  0.01981422     0.00100
C774        C  0.51669060  0.49913271  0.00729713    -0.08400
C775        C  0.54260603  0.48916610  0.01568525     0.62000
H776        H  0.53159783  0.49852513  0.97667899     0.12700
H777        H  0.94955763  0.99289740  0.02079177     0.12700
C778        C  0.93042622  0.98727756  0.98155738     0.62300
F779        F  0.55700966  0.47888199  0.00068240    -0.22900
F780        F  0.52610512  0.46184051  0.02906589    -0.20200
F781        F  0.07061011  0.51690775  0.02668674    -0.19900
F782        F  0.42400637  0.96075566  0.96791810    -0.20000
F783        F  0.92822272  0.01405368  0.97231681    -0.20300
F784        F  0.90524798  0.97350612  0.99637411    -0.23000
C785        C  0.27293050  0.25556995  0.49002957    -0.05800
C786        C  0.24214541  0.23171809  0.48018025     0.00100
C787        C  0.21258923  0.20906119  0.49177788    -0.08500
C788        C  0.21495048  0.21157714  0.51291519    -0.05800
C789        C  0.24548245  0.23603763  0.52272198     0.00100
C790        C  0.27534357  0.25800392  0.51113216    -0.08400
C791        C  0.30997306  0.28326351  0.52085655     0.62000
H792        H  0.29530110  0.27250099  0.48095386     0.12700
H793        H  0.19254281  0.19485834  0.52201631     0.12700
C794        C  0.17827075  0.18329533  0.48200305     0.62300
F795        F  0.33667220  0.29762525  0.50694695    -0.22900
F796        F  0.31881353  0.26630297  0.53525548    -0.20200
F797        F  0.30766783  0.31003475  0.52973353    -0.19900
F798        F  0.18207528  0.15822159  0.47204862    -0.20000
F799        F  0.16788152  0.20025055  0.46849281    -0.20300
F800        F  0.15201886  0.16673272  0.49601466    -0.23000
C801        C  0.26084927  0.48972658  0.51152136    -0.05800
C802        C  0.26066604  0.01449568  0.52306724     0.00100
C803        C  0.26275233  0.04220028  0.51120312    -0.08500
C804        C  0.26371841  0.04020359  0.49003474    -0.05800
C805        C  0.26364210  0.01218205  0.48033433     0.00100
C806        C  0.26082176  0.48741526  0.49042397    -0.08400
C807        C  0.26982266  0.46194550  0.48082900     0.62000
H808        H  0.26697254  0.47322858  0.52070451     0.12700
H809        H  0.26441076  0.06068171  0.48080980     0.12700
C810        C  0.26372670  0.07368315  0.52060501     0.62300
F811        F  0.28078347  0.44632110  0.49494592    -0.22900
F812        F  0.29640782  0.47897197  0.46708078    -0.20200
F813        F  0.24084125  0.43609116  0.47119626    -0.19900
F814        F  0.29447947  0.09234496  0.53124557    -0.20000
F815        F  0.23571592  0.06338904  0.53338105    -0.20300
F816        F  0.26213439  0.09557825  0.50625815    -0.23000
C817        C  0.50537746  0.22028242  0.51424421    -0.05800
C818        C  0.49533258  0.24234308  0.52340329     0.00100
C819        C  0.98333173  0.26218859  0.51165551    -0.08500
C820        C  0.98325088  0.25853173  0.49066183    -0.05800
C821        C  0.49337694  0.23536181  0.48103218     0.00100
C822        C  0.50509234  0.21680219  0.49315124    -0.08400
C823        C  0.51903568  0.19504783  0.48386030     0.62000
H824        H  0.51403881  0.20618257  0.52379491     0.12700
H825        H  0.97635519  0.27390253  0.48108032     0.12700
C826        C  0.97054200  0.28520585  0.52054630     0.62300
F827        F  0.53311955  0.18278916  0.49821994    -0.22900
F828        F  0.54495938  0.21483971  0.47021183    -0.20200
F829        F  0.49249612  0.16688450  0.47410371    -0.19900
F830        F  0.99801611  0.31392675  0.52932489    -0.20000
F831        F  0.94535818  0.26696175  0.53487934    -0.20300
F832        F  0.95589237  0.29662608  0.50604032    -0.23000
C833        C  0.37075971  0.20944200  0.40733171    -0.05800
C834        C  0.39831655  0.23458298  0.41887825     0.00100
C835        C  0.39316115  0.25864942  0.43008636    -0.08500
C836        C  0.36077128  0.25719029  0.42885963    -0.05800
C837        C  0.33326267  0.23222536  0.41724903     0.00100
C838        C  0.33816100  0.20774190  0.40624619    -0.08400
C839        C  0.30969182  0.18043995  0.39304531     0.62000
H840        H  0.37507581  0.19108015  0.39902723     0.12700
H841        H  0.35648571  0.27545232  0.43730087     0.12700
C842        C  0.42092781  0.28469987  0.44407843     0.62300
F843        F  0.32177638  0.16266160  0.38168324    -0.22900
F844        F  0.29706661  0.19592302  0.37990980    -0.20200
F845        F  0.28285988  0.15653091  0.40491227    -0.19900
F846        F  0.44839875  0.30962111  0.43302663    -0.20000
F847        F  0.43266036  0.26781453  0.45666818    -0.20300
F848        F  0.40831022  0.30134583  0.45602048    -0.23000
C849        C  0.11115485  0.25815281  0.43013683    -0.05800
C850        C  0.08337822  0.23238212  0.41902692     0.00100
C851        C  0.08872891  0.20866554  0.40755942    -0.08500
C852        C  0.12178467  0.21142915  0.40802175    -0.05800
C853        C  0.14959674  0.23721252  0.41914164     0.00100
C854        C  0.14431987  0.26115200  0.43042049    -0.08400
C855        C  0.17304890  0.28935673  0.44303330     0.62000
H856        H  0.10657761  0.27608670  0.43871275     0.12700
H857        H  0.12630447  0.19346068  0.39944011     0.12700
C858        C  0.06035893  0.18131065  0.39431892     0.62300
F859        F  0.16084274  0.30682870  0.45457668    -0.15700
F860        F  0.19876503  0.31331713  0.43060070    -0.20200
F861        F  0.18715774  0.27502038  0.45596172    -0.19900
F862        F  0.04698424  0.19662523  0.38158721    -0.20000
F863        F  0.03399560  0.15671014  0.40614802    -0.20300
F864        F  0.07284293  0.16438154  0.38250459    -0.23000
C865        C  0.47848802  0.49675211  0.48720508    -0.05800
C866        C  0.01498047  0.01390756  0.47799829     0.00100
C867        C  0.04440058  0.03522602  0.49008519    -0.08500
C868        C  0.04087951  0.03238300  0.51115458    -0.05800
C869        C  0.00909975  0.00929744  0.52033309     0.00100
C870        C  0.47635738  0.49427721  0.50826301    -0.08400
C871        C  0.44122758  0.47134619  0.51804378     0.62000
H872        H  0.45539435  0.48163681  0.47813648     0.12700
H873        H  0.06309375  0.04813701  0.52070207     0.12700
C874        C  0.07943946  0.06029951  0.48090188     0.62300
F875        F  0.41429330  0.45866323  0.50412269    -0.22900
F876        F  0.43467300  0.49007365  0.53213177    -0.20200
F877        F  0.44106886  0.44336181  0.52730922    -0.19900
F878        F  0.07728820  0.08669091  0.47109815    -0.20000
F879        F  0.08908181  0.04316124  0.46735450    -0.20300
F880        F  0.10539937  0.07510601  0.49535354    -0.23000
C881        C  0.39501060  0.99166635  0.40439894    -0.05800
C882        C  0.42154623  0.01394756  0.41753243     0.00100
C883        C  0.40731296  0.53764868  0.42751059    -0.08500
C884        C  0.37420589  0.53484962  0.42696195    -0.05800
C885        C  0.35630181  0.01111591  0.41710981     0.00100
C886        C  0.36256662  0.99024125  0.40365664    -0.08400
C887        C  0.33580903  0.96770526  0.38799521     0.62000
H888        H  0.40016373  0.97551229  0.39440106     0.12700
H889        H  0.37023636  0.55409587  0.43439341     0.12700
C890        C  0.43629105  0.56661533  0.43962111     0.62300
F891        F  0.33183789  0.43076664  0.38713937    -0.22900
F892        F  0.30547705  0.46216052  0.38283390    -0.20200
F893        F  0.30750021  0.94054829  0.39729392    -0.19900
F894        F  0.42414358  0.58434252  0.45097265    -0.20000
F895        F  0.47096702  0.08617192  0.43476466    -0.20300
F896        F  0.45533871  0.04205573  0.45679005    -0.23000
C897        C  0.16222718  0.02481647  0.40069016    -0.05800
C898        C  0.16940931  0.00946727  0.41718425     0.00100
C899        C  0.13312383  0.48955885  0.42925784    -0.08500
C900        C  0.10311763  0.49276946  0.42874207    -0.05800
C901        C  0.10678433  0.01147078  0.41532772     0.00100
C902        C  0.13110844  0.02610220  0.39945479    -0.08400
C903        C  0.12395667  0.04240312  0.38119662     0.62000
H904        H  0.18128277  0.03580001  0.38875482     0.12700
H905        H  0.08160613  0.47705878  0.43868239     0.12700
C906        C  0.13508921  0.46426315  0.44397588     0.62300
F907        F  0.14894841  0.05114040  0.36646388    -0.22900
F908        F  0.12391278  0.07221523  0.38682828    -0.20200
F909        F  0.09192930  0.01944973  0.37290447    -0.19900
F910        F  0.16495785  0.48117021  0.45559095    -0.20000
F911        F  0.13540118  0.43766452  0.43354399    -0.20300
F912        F  0.10685475  0.44965481  0.45684272    -0.23000
C913        C  0.25556863  0.22917186  0.17969549    -0.05800
C914        C  0.23048491  0.23418299  0.18956721     0.00100
C915        C  0.20562915  0.23823294  0.17795345    -0.08500
C916        C  0.20808298  0.23879445  0.15681212    -0.05800
C917        C  0.23392448  0.23486799  0.14700227     0.00100
C918        C  0.25727836  0.22856733  0.15861747    -0.08400
C919        C  0.28340491  0.22033022  0.14902442     0.62000
H920        H  0.27410041  0.22571459  0.18870715     0.12700
H921        H  0.19000829  0.24285599  0.14770759     0.12700
C922        C  0.17722867  0.24289399  0.18764615     0.62300
F923        F  0.29774130  0.20766950  0.16298129    -0.22900
F924        F  0.31023280  0.24994689  0.14053942    -0.20200
F925        F  0.26722151  0.19535522  0.13435585    -0.19900
F926        F  0.19184601  0.27021673  0.20101746    -0.20000
F927        F  0.15427953  0.21291557  0.19772236    -0.20300
F928        F  0.15826880  0.24985179  0.17355966    -0.23000
C929        C  0.24319160  0.26639388  0.32340710    -0.05800
C930        C  0.24119425  0.23798351  0.31336266     0.00100
C931        C  0.23959373  0.21004391  0.32440718    -0.08500
C932        C  0.24001816  0.21146142  0.34552403    -0.05800
C933        C  0.24195408  0.23987887  0.35585144     0.00100
C934        C  0.24345691  0.26796255  0.34456091    -0.08400
C935        C  0.24425532  0.29902656  0.35447311     0.62000
H936        H  0.24425746  0.28731201  0.31442350     0.12700
H937        H  0.23900551  0.19024859  0.35415063     0.12700
C938        C  0.23744209  0.17896194  0.31379883     0.62300
F939        F  0.27542666  0.31819501  0.36463011    -0.22900
F940        F  0.21679752  0.28799364  0.36775332    -0.20200
F941        F  0.24130487  0.32072685  0.34052970    -0.19900
F942        F  0.26629511  0.18954802  0.30168614    -0.20000
F943        F  0.20769084  0.16337215  0.30203534    -0.20300
F944        F  0.23627070  0.15452372  0.32726614    -0.23000
C945        C  0.26544823  0.39359916  0.25771073    -0.05800
C946        C  0.23509084  0.39405024  0.25175470     0.00100
C947        C  0.20488880  0.36205992  0.24676796    -0.08500
C948        C  0.20708900  0.33150972  0.24702357    -0.05800
C949        C  0.23765822  0.33122287  0.25261267     0.00100
C950        C  0.26722749  0.36286883  0.25866498    -0.08400
C951        C  0.30036700  0.36461733  0.26673619     0.62000
H952        H  0.28809487  0.41782556  0.26188851     0.12700
H953        H  0.18457137  0.30725201  0.24274972     0.12700
C954        C  0.17028951  0.35953379  0.24111584     0.62300
F955        F  0.32340526  0.39691351  0.27446333    -0.22900
F956        F  0.31724161  0.35793715  0.25147409    -0.20200
F957        F  0.29228484  0.34071470  0.28211035    -0.19900
F958        F  0.17465740  0.38078053  0.22480454    -0.20000
F959        F  0.15757554  0.36912949  0.25732048    -0.20300
F960        F  0.14529993  0.32619694  0.23589493    -0.23000
C961        C  0.21018933  0.11650089  0.26228893    -0.05800
C962        C  0.23590585  0.14419650  0.25112444     0.00100
C963        C  0.26052399  0.13922568  0.24016083    -0.08500
C964        C  0.25841300  0.10666196  0.24092002    -0.05800
C965        C  0.23282293  0.07900649  0.25213953     0.00100
C966        C  0.20836942  0.08402504  0.26326915    -0.08400
C967        C  0.18113755  0.05592721  0.27667706     0.62000
H968        H  0.19156550  0.12065313  0.27050788     0.12700
H969        H  0.27688424  0.10246284  0.23255641     0.12700
C970        C  0.28838383  0.16756582  0.22718414     0.62300
F971        F  0.16375933  0.06822161  0.28827323    -0.22900
F972        F  0.19693657  0.04335395  0.28963699    -0.20200
F973        F  0.15661478  0.02923279  0.26500932    -0.19900
F974        F  0.31267250  0.19372432  0.23924291    -0.20000
F975        F  0.27324358  0.18076993  0.21421845    -0.20300
F976        F  0.30592947  0.15541081  0.21563315    -0.23000
C977        C  0.25468385  0.47699314  0.15550798    -0.05800
C978        C  0.22562173  0.98522255  0.14744845     0.00100
C979        C  0.20816275  0.99884276  0.15877092    -0.08500
C980        C  0.20855945  0.99671863  0.17995141    -0.05800
C981        C  0.23596197  0.48624253  0.18804284     0.00100
C982        C  0.25602111  0.47568226  0.17663139    -0.08400
C983        C  0.27787766  0.46199026  0.18658182     0.62000
H984        H  0.27035463  0.46969427  0.14654644     0.12700
H985        H  0.19584517  0.00736626  0.18895104     0.12700
C986        C  0.19100607  0.01725620  0.14860667     0.62300
F987        F  0.29022881  0.44766510  0.17271457    -0.22900
F988        F  0.25798055  0.43649111  0.20042824    -0.20200
F989        F  0.29235998  0.97652008  0.19804160    -0.19900
F990        F  0.16237913  0.48077812  0.13645041    -0.20000
F991        F  0.21503509  0.04387921  0.13665492    -0.20300
F992        F  0.17837991  0.03134982  0.16245168    -0.23000
C993        C  0.22641750  0.47307316  0.34582997    -0.05800
C994        C  0.25726862  0.00484291  0.35555733     0.00100
C995        C  0.27645879  0.03283927  0.34198710    -0.08500
C996        C  0.27039125  0.02685013  0.32116103    -0.05800
C997        C  0.24455261  0.49517825  0.31201828     0.00100
C998        C  0.22278707  0.46756073  0.32495917    -0.08400
C999        C  0.19645879  0.43207635  0.31692287     0.62000
H1000       H  0.20951746  0.45210745  0.35575021     0.12700
H1001       H  0.28448805  0.04781435  0.31058529     0.12700
C1002       C  0.30332782  0.06885482  0.34905554     0.62300
F1003       F  0.18188084  0.40772835  0.33217089    -0.22900
F1004       F  0.21252883  0.42061087  0.30370487    -0.20200
F1005       F  0.17254732  0.93039212  0.31107617    -0.19900
F1006       F  0.32265119  0.56487248  0.36203054    -0.20000
F1007       F  0.28715558  0.08326049  0.35989702    -0.20300
F1008       F  0.32042409  0.09094044  0.33312568    -0.23000
C1009       C  0.03041004  0.25606392  0.18104318    -0.05800
C1010       C  0.50513090  0.26113762  0.19048048     0.00100
C1011       C  0.48254659  0.26866945  0.17895600    -0.08500
C1012       C  0.48419229  0.26815485  0.15782893    -0.05800
C1013       C  0.50782951  0.26094343  0.14797204     0.00100
C1014       C  0.03207770  0.25557956  0.15993374    -0.08400
C1015       C  0.05801816  0.24723406  0.15021652     0.62000
H1016       H  0.04782766  0.25094269  0.19010000     0.12700
H1017       H  0.46687165  0.27340303  0.14875946     0.12700
C1018       C  0.45745954  0.27809866  0.18877458     0.62300
F1019       F  0.07484307  0.23753015  0.16428897    -0.22900
F1020       F  0.08310165  0.27605305  0.14013766    -0.20200
F1021       F  0.04098442  0.22016798  0.13684708    -0.19900
F1022       F  0.47502348  0.30406759  0.20274202    -0.20000
F1023       F  0.43103552  0.24937129  0.19821681    -0.20300
F1024       F  0.44232173  0.28992967  0.17483433    -0.23000
C1025       C  0.97014767  0.21995325  0.32346756    -0.05800
C1026       C  0.50072991  0.24507713  0.31451808     0.00100
C1027       C  0.52913146  0.26585202  0.32757164    -0.08500
C1028       C  0.52446470  0.26021284  0.34844364    -0.05800
C1029       C  0.49280117  0.23508232  0.35681142     0.00100
C1030       C  0.96540342  0.21470908  0.34438803    -0.08400
C1031       C  0.92995513  0.18822417  0.35250241     0.62000
H1032       H  0.94882555  0.20388027  0.31346676     0.12700
H1033       H  0.54581116  0.27567757  0.35859272     0.12700
C1034       C  0.56406877  0.29446296  0.31993333     0.62300
F1035       F  0.90529027  0.17358498  0.33733970    -0.22900
F1036       F  0.91841755  0.20400102  0.36584542    -0.20200
F1037       F  0.93222110  0.16182945  0.36220433    -0.19900
F1038       F  0.55920253  0.31744644  0.30810872    -0.20000
F1039       F  0.58025657  0.28030788  0.30888356    -0.20300
F1040       F  0.58636016  0.31315089  0.33550270    -0.23000
C1041       C  0.47392688  0.34831395  0.25882684    -0.05800
C1042       C  0.50532836  0.34880549  0.25455674     0.00100
C1043       C  0.03680843  0.38209074  0.25125665    -0.08500
C1044       C  0.03377107  0.41209099  0.25077358    -0.05800
C1045       C  0.50059324  0.41052372  0.25305741     0.00100
C1046       C  0.47082613  0.37838379  0.25818610    -0.08400
C1047       C  0.43584012  0.37526089  0.26310179     0.62000
H1048       H  0.45135015  0.32378121  0.26260590     0.12700
H1049       H  0.05653531  0.43660455  0.24724509     0.12700
C1050       C  0.07218896  0.38568273  0.24679818     0.62300
F1051       F  0.41147132  0.34202901  0.26899226    -0.22900
F1052       F  0.42270292  0.38345575  0.24629497    -0.20200
F1053       F  0.43970781  0.39727991  0.27872057    -0.19900
F1054       F  0.06957282  0.36560967  0.23037900    -0.20000
F1055       F  0.08396217  0.37550958  0.26341199    -0.20300
F1056       F  0.09713569  0.41947666  0.24233424    -0.23000
C1057       C  0.47815274  0.09950234  0.25670001    -0.05800
C1058       C  0.50687026  0.09951577  0.24776644     0.00100
C1059       C  0.03427137  0.13153935  0.23914037    -0.08500
C1060       C  0.03107530  0.16146814  0.24005847    -0.05800
C1061       C  0.50155171  0.16065034  0.24888386     0.00100
C1062       C  0.47480120  0.12935777  0.25738313    -0.08400
C1063       C  0.44311582  0.12723860  0.26755712     0.62000
H1064       H  0.45825772  0.07569868  0.26344327     0.12700
H1065       H  0.05103481  0.18536175  0.23342018     0.12700
C1066       C  0.06534041  0.13343813  0.22832497     0.62300
F1067       F  0.42227797  0.09521694  0.27638585    -0.22900
F1068       F  0.42300687  0.13252350  0.25348497    -0.20200
F1069       F  0.45358681  0.15195864  0.28249195    -0.19900
F1070       F  0.05408879  0.10730727  0.21421695    -0.20000
F1071       F  0.08716022  0.13019255  0.24208948    -0.20300
F1072       F  0.08459954  0.16463161  0.21830904    -0.23000
C1073       C  0.47547881  0.47752274  0.15442572    -0.05800
C1074       C  0.51265842  0.00604350  0.14501954     0.00100
C1075       C  0.04188542  0.03143814  0.15617675    -0.08500
C1076       C  0.03872675  0.03009120  0.17724952    -0.05800
C1077       C  0.50838854  0.00365515  0.18769045     0.00100
C1078       C  0.47366312  0.47541302  0.17556427    -0.08400
C1079       C  0.44180675  0.44560275  0.18537769     0.62000
H1080       H  0.45419290  0.45809170  0.14556850     0.12700
H1081       H  0.05985409  0.04932893  0.18627601     0.12700
C1082       C  0.07546659  0.05943245  0.14677977     0.62300
F1083       F  0.42009247  0.42138567  0.17143188    -0.22900
F1084       F  0.42267167  0.45803600  0.19502214    -0.20200
F1085       F  0.95329292  0.42998784  0.20040348    -0.19900
F1086       F  0.56773911  0.07827382  0.13411938    -0.20000
F1087       F  0.09187235  0.04429526  0.13688199    -0.20300
F1088       F  0.09856882  0.08168626  0.16103321    -0.23000
C1089       C  0.48602759  0.47953253  0.32101651    -0.05800
C1090       C  0.01066390  0.01053278  0.31120597     0.00100
C1091       C  0.03248615  0.04075304  0.32234692    -0.08500
C1092       C  0.03157923  0.03876108  0.34346438    -0.05800
C1093       C  0.00945129  0.00788019  0.35385184     0.00100
C1094       C  0.48390913  0.47785034  0.34213291    -0.08400
C1095       C  0.46166573  0.44261547  0.35196674     0.62000
H1096       H  0.47263422  0.45611008  0.31218151     0.12700
H1097       H  0.04868630  0.06161992  0.35204603     0.12700
C1098       C  0.05581658  0.07530336  0.31210723     0.62300
F1099       F  0.44451061  0.41664565  0.33792223    -0.22900
F1100       F  0.43807280  0.95196071  0.36610877    -0.20200
F1101       F  0.48244222  0.43391343  0.36343032    -0.19900
F1102       F  0.03652417  0.08272243  0.29852982    -0.20000
F1103       F  0.06953740  0.58233421  0.30180160    -0.20300
F1104       F  0.07073042  0.10219855  0.32577724    -0.23000
O1105       O  0.47976975  0.99127550  0.21982368    -0.73000
O1106       O  0.48084029  0.99441807  0.28009001    -0.74000
O1107       O  0.47926195  0.53957737  0.24754427    -0.62600
O1108       O  0.48126487  0.94807952  0.25094190    -0.71000
O1109       O  0.03849638  0.97718051  0.25006605    -0.70500
O1110       O  0.03849829  0.56605376  0.24819861    -0.61800
O1111       O  0.03625824  0.52314055  0.28036866    -0.74300
O1112       O  0.03369581  0.51633052  0.22001191    -0.73100
Cu1113     Cu  0.47831861  0.99182753  0.24994966     1.04600
Cu1114     Cu  0.03713927  0.52056460  0.25021436     1.04300
C1115       C  0.50273885  0.50180630  0.20936392     0.93200
C1116       C  0.01023136  0.00980248  0.28895451     0.92400
C1117       C  0.01083371  0.56819760  0.24796506     0.84500
C1118       C  0.00976076  0.94846351  0.25022310     0.90800
O1119       O  0.48565216  0.74482249  0.27759951    -0.73000
O1120       O  0.48526825  0.74809982  0.21749838    -0.74000
O1121       O  0.48406101  0.70112049  0.24657936    -0.62600
O1122       O  0.48714878  0.79251157  0.24840931    -0.71000
O1123       O  0.04428541  0.81977846  0.24877578    -0.70500
O1124       O  0.04197044  0.72800463  0.24761539    -0.61800
O1125       O  0.04370852  0.77532960  0.21790242    -0.74300
O1126       O  0.04251705  0.77200989  0.27847270    -0.73100
Cu1127     Cu  0.48365469  0.74582166  0.24751110     1.04600
Cu1128     Cu  0.04519372  0.77481952  0.24820366     1.04300
C1129       C  0.51426533  0.75703299  0.28741790     0.93200
C1130       C  0.51369150  0.76169216  0.20768517     0.92400
C1131       C  0.51202440  0.69946691  0.24665342     0.84500
C1132       C  0.51638173  0.82066303  0.24854550     0.90800
O1133       O  0.20130042  0.97063690  0.22278552    -0.73000
O1134       O  0.21119955  0.97511405  0.28332605    -0.74000
O1135       O  0.21258976  0.52221419  0.25054981    -0.62600
O1136       O  0.20671028  0.92790304  0.25314725    -0.71000
O1137       O  0.26390779  0.95653999  0.25052526    -0.70500
O1138       O  0.27024249  0.54918911  0.24890382    -0.61800
O1139       O  0.27070944  0.50506144  0.27969131    -0.74300
O1140       O  0.26644735  0.50099513  0.21946725    -0.73100
Cu1141     Cu  0.20404332  0.97163183  0.25321952     1.04600
Cu1142     Cu  0.27041744  0.50382200  0.24955593     1.04300
C1143       C  0.22892694  0.98411549  0.21210984     0.93200
C1144       C  0.24153947  0.99089135  0.29131376     0.92400
C1145       C  0.24187695  0.55016261  0.25000355     0.84500
C1146       C  0.23533148  0.92769758  0.25170836     0.90800
O1147       O  0.21805090  0.72666195  0.27963721    -0.73000
O1148       O  0.21054022  0.72480197  0.21938437    -0.74000
O1149       O  0.21464359  0.68066830  0.24935068    -0.62600
O1150       O  0.21436377  0.77113214  0.24997839    -0.71000
O1151       O  0.27162689  0.79956871  0.24795450    -0.70500
O1152       O  0.27221034  0.70956189  0.24686629    -0.61800
O1153       O  0.26802300  0.75360610  0.21716268    -0.74300
O1154       O  0.27548702  0.75496322  0.27769154    -0.73100
Cu1155     Cu  0.21241811  0.72486992  0.24964293     1.04600
Cu1156     Cu  0.27381687  0.75546143  0.24733127     1.04300
C1157       C  0.24783816  0.74072987  0.28829791     0.93200
C1158       C  0.23804669  0.73890854  0.20867917     0.92400
C1159       C  0.24359708  0.68094575  0.24798133     0.84500
C1160       C  0.24303606  0.79991723  0.24921381     0.90800
O1161       O  0.47463883  0.54213689  0.41557312    -0.73000
O1162       O  0.06685128  0.54510241  0.41503391    -0.74000
O1163       O  0.01876059  0.54183071  0.38565051    -0.62600
O1164       O  0.02431886  0.54771726  0.44592551    -0.71000
O1165       O  0.49938070  0.98396258  0.44709360    -0.70500
O1166       O  0.49736772  0.98144665  0.38702103    -0.61800
O1167       O  0.04493192  0.98285667  0.41661360    -0.74300
O1168       O  0.45375402  0.98405084  0.41709584    -0.73100
Cu1169     Cu  0.02242407  0.54681275  0.41570292     1.04600
Cu1170     Cu  0.49750797  0.98080287  0.41709616     1.04300
C1171       C  0.44616123  0.51335710  0.41661962     0.93200
C1172       C  0.06689310  0.51646822  0.41592373     0.92400
C1173       C  0.00446740  0.51230849  0.37702044     0.84500
C1174       C  0.01049435  0.51981894  0.45629130     0.90800
O1175       O  0.44015573  0.70473244  0.41390227    -0.73000
O1176       O  0.03342821  0.71073872  0.41311465    -0.74000
O1177       O  0.48661648  0.70599545  0.44408381    -0.62600
O1178       O  0.48780892  0.71050366  0.38330764    -0.71000
O1179       O  0.01555311  0.76957671  0.38536894    -0.70500
O1180       O  0.01465446  0.76395144  0.44564060    -0.61800
O1181       O  0.06122672  0.76804822  0.41509820    -0.74300
O1182       O  0.46601214  0.76198441  0.41534762    -0.73100
Cu1183     Cu  0.48607802  0.70598934  0.41364127     1.04600
Cu1184     Cu  0.01600929  0.76871187  0.41561921     1.04300
C1185       C  0.43829204  0.73236560  0.41511785     0.93200
C1186       C  0.06176794  0.73969610  0.41371898     0.92400
C1187       C  0.49953174  0.73405721  0.45418694     0.84500
C1188       C  0.50169666  0.73998836  0.37449746     0.90800
O1189       O  0.24726153  0.97977746  0.38846995    -0.73000
O1190       O  0.24954997  0.98303303  0.44853432    -0.74000
O1191       O  0.20304103  0.98111137  0.41843580    -0.62600
O1192       O  0.29415385  0.98201221  0.41832421    -0.71000
O1193       O  0.31266057  0.53657673  0.41659762    -0.70500
O1194       O  0.22294164  0.53849801  0.41576907    -0.61800
O1195       O  0.26772292  0.53817292  0.44661856    -0.74300
O1196       O  0.26726294  0.53632869  0.38585889    -0.73100
Cu1197     Cu  0.24760674  0.97957314  0.41850866     1.04600
Cu1198     Cu  0.26873051  0.53945512  0.41618821     1.04300
C1199       C  0.25248872  0.50726869  0.37675451     0.93200
C1200       C  0.25328957  0.50956037  0.45639566     0.92400
C1201       C  0.19409547  0.51000928  0.41624565     0.84500
C1202       C  0.31223329  0.50763992  0.41696187     0.90800
O1203       O  0.23134431  0.70308321  0.38522984    -0.73000
O1204       O  0.23135225  0.70082949  0.44561430    -0.74000
O1205       O  0.18788846  0.70615424  0.41540040    -0.62600
O1206       O  0.27495773  0.69826864  0.41506278    -0.71000
O1207       O  0.30659435  0.75554766  0.41582306    -0.70500
O1208       O  0.22019172  0.76339690  0.41624115    -0.61800
O1209       O  0.26325486  0.75789459  0.44624630    -0.74300
O1210       O  0.26312055  0.76018627  0.38563272    -0.73100
Cu1211     Cu  0.23024001  0.70009069  0.41532574     1.04600
Cu1212     Cu  0.26441348  0.76122367  0.41599915     1.04300
C1213       C  0.24694272  0.73185675  0.37579547     0.93200
C1214       C  0.24724855  0.72891700  0.45558981     0.92400
C1215       C  0.19039507  0.73604057  0.41588633     0.84500
C1216       C  0.30459993  0.72593846  0.41531699     0.90800
O1217       O  0.03787412  0.97731082  0.08021603    -0.73000
O1218       O  0.03196897  0.56432996  0.08277730    -0.74000
O1219       O  0.03242666  0.51869275  0.11279727    -0.62600
O1220       O  0.02731283  0.51807418  0.05240312    -0.71000
O1221       O  0.47832943  0.99564811  0.05310002    -0.70500
O1222       O  0.48218175  0.99348320  0.11354373    -0.61800
O1223       O  0.47205319  0.53625458  0.08311641    -0.74300
O1224       O  0.47964316  0.94907143  0.08232606    -0.73100
Cu1225     Cu  0.03192621  0.51930063  0.08252916     1.04600
Cu1226     Cu  0.47823048  0.99356610  0.08341358     1.04300
C1227       C  0.50792159  0.94807494  0.08118006     0.93200
C1228       C  0.50140045  0.56422476  0.08205910     0.92400
C1229       C  0.50270506  0.50438940  0.12184017     0.84500
C1230       C  0.49619411  0.50376703  0.04225512     0.90800
O1231       O  0.03616891  0.72483755  0.08122374    -0.73000
O1232       O  0.04063711  0.81747302  0.07958695    -0.74000
O1233       O  0.04259167  0.77372779  0.11051975    -0.62600
O1234       O  0.03420581  0.76785086  0.05038064    -0.71000
O1235       O  0.47487629  0.74047516  0.05144614    -0.70500
O1236       O  0.48221887  0.74583583  0.11170488    -0.61800
O1237       O  0.48121069  0.78984657  0.08088943    -0.74300
O1238       O  0.47588590  0.69712946  0.08250457    -0.73100
Cu1239     Cu  0.04041260  0.77197657  0.08032461     1.04600
Cu1240     Cu  0.47657072  0.74253168  0.08168596     1.04300
C1241       C  0.50382319  0.69543789  0.08177042     0.93200
C1242       C  0.51064068  0.81776872  0.07990735     0.92400
C1243       C  0.51203461  0.75911692  0.12030490     0.84500
C1244       C  0.50249549  0.75197964  0.04094171     0.90800
O1245       O  0.20960624  0.97766437  0.05390340    -0.73000
O1246       O  0.20071763  0.97495860  0.11434019    -0.74000
O1247       O  0.21075146  0.52237384  0.08149312    -0.62600
O1248       O  0.20380434  0.93041894  0.08459485    -0.71000
O1249       O  0.26119457  0.95726233  0.08730142    -0.70500
O1250       O  0.26816547  0.55123705  0.08410791    -0.61800
O1251       O  0.26517054  0.50442321  0.11485823    -0.74300
O1252       O  0.27287851  0.50740122  0.05468143    -0.73100
Cu1253     Cu  0.20319730  0.97547426  0.08402156     1.04600
Cu1254     Cu  0.27084284  0.50704469  0.08486743     1.04300
C1255       C  0.24551971  0.49301076  0.04374751     0.93200
C1256       C  0.23529231  0.48963508  0.12322373     0.92400
C1257       C  0.23930510  0.55116888  0.08236346     0.84500
C1258       C  0.23204860  0.92921879  0.08563404     0.90800
O1259       O  0.26082179  0.70708498  0.07999214    -0.73000
O1260       O  0.26325221  0.79872258  0.08223599    -0.74000
O1261       O  0.26326795  0.75140329  0.11120328    -0.62600
O1262       O  0.26075670  0.75461062  0.05080191    -0.71000
O1263       O  0.20315716  0.72745227  0.05119977    -0.70500
O1264       O  0.20568239  0.72415392  0.11195883    -0.61800
O1265       O  0.20568796  0.77152098  0.08279210    -0.74300
O1266       O  0.20331963  0.67961199  0.08055753    -0.73100
Cu1267     Cu  0.26395601  0.75383576  0.08100054     1.04600
Cu1268     Cu  0.20243441  0.72467396  0.08162260     1.04300
C1269       C  0.23175463  0.67870132  0.08031127     0.93200
C1270       C  0.23493350  0.79973057  0.08301905     0.92400
C1271       C  0.23495974  0.73722390  0.12118965     0.84500
C1272       C  0.23174239  0.74190843  0.04138835     0.90800
O1273       O  0.01803518  0.57229677  0.91590127    -0.73000
O1274       O  0.43071386  0.98227872  0.91767910    -0.74000
O1275       O  0.47337597  0.52511699  0.94583262    -0.62600
O1276       O  0.47014976  0.52586551  0.88516001    -0.71000
O1277       O  0.00090630  0.99669378  0.88452234    -0.70500
O1278       O  0.00654887  0.99695844  0.94479557    -0.61800
O1279       O  0.45827431  0.95237862  0.91630547    -0.74300
O1280       O  0.04730046  0.54413203  0.91472111    -0.73100
Cu1281     Cu  0.47076640  0.52659129  0.91552337     1.04600
Cu1282     Cu  0.00443587  0.99575282  0.91459541     1.04300
C1283       C  0.04712001  0.57271018  0.91496370     0.93200
C1284       C  0.42981741  0.95309347  0.91743767     0.92400
C1285       C  0.99015396  0.51192507  0.95614826     0.84500
C1286       C  0.98472454  0.51255986  0.87630777     0.90800
O1287       O  0.01906671  0.72495324  0.94607808    -0.73000
O1288       O  0.02280217  0.72564238  0.88584457    -0.74000
O1289       O  0.06612991  0.77106792  0.91669494    -0.62600
O1290       O  0.47595952  0.68120965  0.91389810    -0.71000
O1291       O  0.44680551  0.70956472  0.91287026    -0.70500
O1292       O  0.03627086  0.79888577  0.91604465    -0.61800
O1293       O  0.49428722  0.75593358  0.88368956    -0.74300
O1294       O  0.48986439  0.75401878  0.94391666    -0.73100
Cu1295     Cu  0.02196106  0.72434836  0.91602707     1.04600
Cu1296     Cu  0.49101378  0.75589549  0.91379292     1.04300
C1297       C  0.50403136  0.73973499  0.95405769     0.93200
C1298       C  0.50962274  0.74211257  0.87460511     0.92400
C1299       C  0.06540935  0.79947088  0.91683794     0.84500
C1300       C  0.44690670  0.68085695  0.91329407     0.90800
O1301       O  0.27482680  0.97454971  0.89012332    -0.73000
O1302       O  0.26656201  0.97619721  0.95068212    -0.74000
O1303       O  0.22577912  0.92997087  0.91936768    -0.62600
O1304       O  0.31275273  0.52438207  0.91756717    -0.71000
O1305       O  0.28299652  0.55208645  0.91548270    -0.70500
O1306       O  0.19627159  0.95804737  0.91682490    -0.61800
O1307       O  0.23632760  0.50699173  0.94561325    -0.74300
O1308       O  0.23904265  0.50560743  0.88530655    -0.73100
Cu1309     Cu  0.27188636  0.97437061  0.92049613     1.04600
Cu1310     Cu  0.23680139  0.50724244  0.91541065     1.04300
C1311       C  0.25525774  0.49239211  0.87651789     0.93200
C1312       C  0.25011102  0.49282949  0.95615726     0.92400
C1313       C  0.19678406  0.92956751  0.91774541     0.84500
C1314       C  0.31224425  0.55281456  0.91644408     0.90800
O1315       O  0.21846681  0.77742631  0.94563772    -0.73000
O1316       O  0.21950256  0.78438286  0.88467512    -0.74000
O1317       O  0.17393932  0.73626438  0.91391272    -0.62600
O1318       O  0.26475898  0.82643060  0.91662753    -0.71000
O1319       O  0.29379609  0.79802014  0.91524057    -0.70500
O1320       O  0.20320386  0.70810263  0.91230779    -0.61800
O1321       O  0.24881551  0.75604218  0.88368284    -0.74300
O1322       O  0.24735682  0.74891611  0.94384115    -0.73100
Cu1323     Cu  0.21828293  0.78228339  0.91525698     1.04600
Cu1324     Cu  0.24938512  0.75196218  0.91371040     1.04300
C1325       C  0.23200351  0.76120010  0.95439123     0.93200
C1326       C  0.23332005  0.76995334  0.87458451     0.92400
C1327       C  0.17411219  0.70773269  0.91274164     0.84500
C1328       C  0.29377369  0.82670278  0.91632802     0.90800
O1329       O  0.01867193  0.53994012  0.61343763    -0.73000
O1330       O  0.02405358  0.54376734  0.55304833    -0.74000
O1331       O  0.47484365  0.53946333  0.58108818    -0.62600
O1332       O  0.06636515  0.54091987  0.58471133    -0.71000
O1333       O  0.03654143  0.97720174  0.58262514    -0.70500
O1334       O  0.44507747  0.97525903  0.58184540    -0.61800
O1335       O  0.49219690  0.97792710  0.55234909    -0.74300
O1336       O  0.48920673  0.97509383  0.61269749    -0.73100
Cu1337     Cu  0.02258137  0.54386246  0.58329428     1.04600
Cu1338     Cu  0.48979526  0.97447658  0.58248777     1.04300
C1339       C  0.00342247  0.51062814  0.62243395     0.93200
C1340       C  0.00890947  0.51557726  0.54308513     0.92400
C1341       C  0.44619618  0.51077038  0.58097450     0.84500
C1342       C  0.06617576  0.51208760  0.58446486     0.90800
O1343       O  0.44626357  0.71259717  0.58274001    -0.73000
O1344       O  0.03695377  0.71329066  0.58087488    -0.74000
O1345       O  0.49524440  0.71625966  0.61198025    -0.62600
O1346       O  0.48973841  0.71245937  0.55159292    -0.71000
O1347       O  0.01600430  0.76756938  0.55101529    -0.70500
O1348       O  0.02134904  0.77041477  0.61137111    -0.61800
O1349       O  0.06444680  0.77045231  0.58030712    -0.74300
O1350       O  0.47346288  0.76990394  0.58168453    -0.73100
Cu1351     Cu  0.49144291  0.71241452  0.58182033     1.04600
Cu1352     Cu  0.01955779  0.77104788  0.58118368     1.04300
C1353       C  0.44534852  0.74083443  0.58271294     0.93200
C1354       C  0.06535277  0.74227182  0.58041662     0.92400
C1355       C  0.51004717  0.74536774  0.62108652     0.84500
C1356       C  0.50231993  0.74056649  0.54142773     0.90800
O1357       O  0.28710250  0.97847239  0.58366213    -0.73000
O1358       O  0.19813990  0.98116656  0.58529031    -0.74000
O1359       O  0.24315766  0.98329471  0.55428652    -0.62600
O1360       O  0.24251120  0.97630942  0.61478397    -0.71000
O1361       O  0.27724687  0.54356297  0.61336914    -0.70500
O1362       O  0.27007490  0.54284269  0.55287326    -0.61800
O1363       O  0.22934572  0.54454947  0.58513213    -0.74300
O1364       O  0.31814329  0.54217327  0.58106739    -0.73100
Cu1365     Cu  0.24159862  0.97783373  0.58446610     1.04600
Cu1366     Cu  0.27474460  0.54527671  0.58309598     1.04300
C1367       C  0.31749776  0.51320455  0.58104089     0.93200
C1368       C  0.20022239  0.51649702  0.58553164     0.92400
C1369       C  0.25484439  0.51401563  0.54353790     0.84500
C1370       C  0.26262946  0.51482226  0.62295078     0.90800
O1371       O  0.23885120  0.70572102  0.55337744    -0.73000
O1372       O  0.23775738  0.70948131  0.61427697    -0.74000
O1373       O  0.19384570  0.70819243  0.58260237    -0.62600
O1374       O  0.28300782  0.70631141  0.58474612    -0.71000
O1375       O  0.31242587  0.76362544  0.58311862    -0.70500
O1376       O  0.22273499  0.76535624  0.58188774    -0.61800
O1377       O  0.26791673  0.76672721  0.61259438    -0.74300
O1378       O  0.26745534  0.76292383  0.55238931    -0.73100
Cu1379     Cu  0.23737339  0.70540431  0.58382038     1.04600
Cu1380     Cu  0.26868567  0.76660706  0.58245846     1.04300
C1381       C  0.25340492  0.73398028  0.54324282     0.93200
C1382       C  0.25264713  0.73897296  0.62300574     0.92400
C1383       C  0.19385942  0.73681574  0.58217294     0.84500
C1384       C  0.31186694  0.73464813  0.58383658     0.90800
O1385       O  0.00472539  0.98996978  0.71952686    -0.73000
O1386       O  0.00274686  0.99336622  0.77989358    -0.74000
O1387       O  0.45600926  0.94711147  0.75078688    -0.62600
O1388       O  0.04598854  0.53849056  0.74957058    -0.71000
O1389       O  0.01773267  0.56771852  0.74847974    -0.70500
O1390       O  0.42838389  0.97711863  0.74865106    -0.61800
O1391       O  0.47281553  0.52309851  0.77794627    -0.74300
O1392       O  0.47309193  0.52120379  0.71745451    -0.73100
Cu1393     Cu  0.00446758  0.99046895  0.74980770     1.04600
Cu1394     Cu  0.47184398  0.52303418  0.74766043     1.04300
C1395       C  0.49010700  0.00494622  0.70957107     0.93200
C1396       C  0.48771355  0.50939341  0.78796080     0.92400
C1397       C  0.42763047  0.94810040  0.74999248     0.84500
C1398       C  0.04653537  0.56739813  0.74884953     0.90800
O1399       O  0.05197334  0.80225771  0.74764074    -0.73000
O1400       O  0.45975967  0.71527078  0.74870959    -0.74000
O1401       O  0.50625898  0.76048014  0.77803737    -0.62600
O1402       O  0.50450629  0.75840986  0.71787189    -0.71000
O1403       O  0.03191972  0.72654085  0.71815801    -0.70500
O1404       O  0.03512873  0.72885238  0.77869528    -0.61800
O1405       O  0.48727506  0.68521636  0.74939946    -0.74300
O1406       O  0.07989816  0.77274931  0.74754719    -0.73100
Cu1407     Cu  0.50458417  0.76051181  0.74796045     1.04600
Cu1408     Cu  0.03474053  0.72700387  0.74842573     1.04300
C1409       C  0.08066463  0.80184164  0.74751903     0.93200
C1410       C  0.45886694  0.68612874  0.74950287     0.92400
C1411       C  0.52064158  0.74611567  0.78785788     0.84500
C1412       C  0.51728971  0.74243207  0.70843604     0.90800
O1413       O  0.29327181  0.56207452  0.75107077    -0.73000
O1414       O  0.20821991  0.96529631  0.75076884    -0.74000
O1415       O  0.24530764  0.51393538  0.77961609    -0.62600
O1416       O  0.24992322  0.51957850  0.71953613    -0.71000
O1417       O  0.28450432  0.98573943  0.72130171    -0.70500
O1418       O  0.28088104  0.97978988  0.78208904    -0.61800
O1419       O  0.23776882  0.93742794  0.75006554    -0.74300
O1420       O  0.32224211  0.53342357  0.75095260    -0.73100
Cu1421     Cu  0.24682851  0.51759127  0.74956113     1.04600
Cu1422     Cu  0.28386361  0.98191008  0.75168681     1.04300
C1423       C  0.32220228  0.56207009  0.75112242     0.93200
C1424       C  0.20852822  0.93683516  0.74986165     0.92400
C1425       C  0.25896975  0.49873933  0.78924697     0.84500
C1426       C  0.26571053  0.50695349  0.70973338     0.90800
O1427       O  0.24641744  0.75012775  0.78033507    -0.73000
O1428       O  0.25473864  0.74180246  0.72095049    -0.74000
O1429       O  0.29544232  0.79192896  0.75068408    -0.62600
O1430       O  0.20494197  0.70066327  0.75073607    -0.71000
O1431       O  0.17622500  0.72897789  0.74588273    -0.70500
O1432       O  0.26603993  0.81931035  0.74454250    -0.61800
O1433       O  0.22435974  0.76843612  0.71514558    -0.74300
O1434       O  0.21834851  0.77920777  0.77537430    -0.73100
Cu1435     Cu  0.25140623  0.74519883  0.75084515     1.04600
Cu1436     Cu  0.22024302  0.77496857  0.74501933     1.04300
C1437       C  0.23153327  0.76609530  0.78734525     0.93200
C1438       C  0.24046885  0.75322309  0.70867201     0.92400
C1439       C  0.29494658  0.82011834  0.74758079     0.84500
C1440       C  0.17604213  0.70047587  0.74855431     0.90800
C1441       C  0.39570728  0.65479343  0.74177683    -0.05800
C1442       C  0.42439725  0.65365936  0.75022236     0.00100
C1443       C  0.41900358  0.62236157  0.75931859    -0.08500
C1444       C  0.38497697  0.59379842  0.75981496    -0.05800
C1445       C  0.35634178  0.59489415  0.75124933     0.00100
C1446       C  0.36185748  0.62593478  0.74182295    -0.08400
C1447       C  0.33274769  0.62858456  0.73114596     0.62000
H1448       H  0.40013674  0.67863638  0.73472597     0.12700
H1449       H  0.38049420  0.56989841  0.76681677     0.12700
C1450       C  0.44854797  0.61869588  0.76864325     0.62300
F1451       F  0.34488525  0.65989527  0.72118122    -0.22900
F1452       F  0.30829697  0.62577773  0.74498106    -0.20200
F1453       F  0.31709468  0.60254278  0.71701884    -0.19900
F1454       F  0.46581344  0.64416395  0.78291133    -0.20000
F1455       F  0.47158461  0.62141469  0.75384163    -0.20300
F1456       F  0.43665925  0.58695315  0.77806355    -0.23000
C1457       C  0.11233191  0.86607090  0.74494187    -0.05800
C1458       C  0.11438590  0.83567842  0.74750348     0.00100
C1459       C  0.14784692  0.83900030  0.75042019    -0.08500
C1460       C  0.17735027  0.87242121  0.75104073    -0.05800
C1461       C  0.17519190  0.90278994  0.74877209     0.00100
C1462       C  0.14178701  0.89945676  0.74546992    -0.08400
C1463       C  0.13649604  0.93048982  0.74233814     0.62000
H1464       H  0.08697850  0.86357038  0.74253720     0.12700
H1465       H  0.20274352  0.87501286  0.75346892     0.12700
C1466       C  0.15309688  0.80790789  0.75294038     0.62300
F1467       F  0.10206931  0.92074433  0.73832582    -0.22900
F1468       F  0.15602788  0.94999359  0.72614822    -0.20200
F1469       F  0.14620587  0.95055440  0.75951770    -0.19900
F1470       F  0.14179999  0.78777983  0.73581020    -0.20000
F1471       F  0.13486319  0.78859984  0.76949092    -0.20300
F1472       F  0.18774620  0.81752621  0.75586695    -0.23000
C1473       C  0.36843765  0.91188615  0.73585001    -0.05800
C1474       C  0.39354658  0.91552376  0.75014224     0.00100
C1475       C  0.38523651  0.88871321  0.76439010    -0.08500
C1476       C  0.35292746  0.85796938  0.76279246    -0.05800
C1477       C  0.32809276  0.85383385  0.74813868     0.00100
C1478       C  0.33556012  0.88165989  0.73469914    -0.08400
C1479       C  0.30946334  0.87952275  0.71895408     0.62000
H1480       H  0.37496133  0.93306326  0.72544824     0.12700
H1481       H  0.34651712  0.83696260  0.77330621     0.12700
C1482       C  0.40948510  0.89317023  0.78183732     0.62300
F1483       F  0.32358410  0.90797563  0.70621458    -0.22900
F1484       F  0.28103506  0.87827856  0.72829225    -0.20200
F1485       F  0.29861767  0.85024826  0.70733267    -0.19900
F1486       F  0.41848041  0.92366945  0.79182838    -0.20000
F1487       F  0.43925019  0.89407893  0.77483399    -0.20300
F1488       F  0.39397584  0.86630616  0.79561029    -0.23000
C1489       C  0.07990388  0.63093513  0.75445323    -0.05800
C1490       C  0.08044215  0.60086615  0.74870279     0.00100
C1491       C  0.11281261  0.60391613  0.74288249    -0.08500
C1492       C  0.14300594  0.63687596  0.74309946    -0.05800
C1493       C  0.14237507  0.66689785  0.74880172     0.00100
C1494       C  0.11010792  0.66382730  0.75473201    -0.08400
C1495       C  0.10712684  0.69468609  0.76175697     0.62000
H1496       H  0.05529329  0.62847240  0.75890930     0.12700
H1497       H  0.16767513  0.63950065  0.73861751     0.12700
C1498       C  0.11600861  0.57300371  0.73616539     0.62300
F1499       F  0.07432626  0.68484591  0.76911940    -0.22900
F1500       F  0.11315807  0.71705317  0.74582325    -0.20200
F1501       F  0.13093448  0.71174044  0.77701210    -0.19900
F1502       F  0.09307604  0.55625232  0.72049674    -0.20000
F1503       F  0.10889429  0.55037710  0.75212521    -0.20300
F1504       F  0.14917614  0.58268030  0.72945145    -0.23000
C1505       C  0.21842520  0.72166185  0.65460428    -0.05800
C1506       C  0.25090010  0.74132933  0.64523036     0.00100
C1507       C  0.28037040  0.76364113  0.65709387    -0.08500
C1508       C  0.27574946  0.76705934  0.67774275    -0.05800
C1509       C  0.24297052  0.74871164  0.68682327     0.00100
C1510       C  0.21400283  0.72480934  0.67532182    -0.08400
C1511       C  0.17889726  0.70215424  0.68510477     0.62000
H1512       H  0.19630758  0.70425099  0.64546332     0.12700
H1513       H  0.29777282  0.78431803  0.68701020     0.12700
C1514       C  0.31677260  0.78260953  0.64825366     0.62300
F1515       F  0.15467650  0.67905701  0.67159919    -0.22900
F1516       F  0.16622102  0.72256642  0.69268618    -0.20200
F1517       F  0.18249119  0.68328572  0.70064076    -0.19900
F1518       F  0.31985496  0.80827330  0.63519206    -0.20000
F1519       F  0.32329738  0.75947683  0.63802453    -0.20300
F1520       F  0.34204223  0.79803459  0.66302891    -0.23000
C1521       C  0.23772581  0.50875887  0.67776016    -0.05800
C1522       C  0.26653672  0.50949524  0.68739263     0.00100
C1523       C  0.29758386  0.01364867  0.67738186    -0.08500
C1524       C  0.29335737  0.01487370  0.65637769    -0.05800
C1525       C  0.26395515  0.51450617  0.64507746     0.00100
C1526       C  0.23601146  0.51132812  0.65675574    -0.08400
C1527       C  0.20475547  0.51107299  0.64696093     0.62000
H1528       H  0.21620791  0.50580142  0.68685033     0.12700
H1529       H  0.31589689  0.02578397  0.64664884     0.12700
C1530       C  0.33375657  0.02725428  0.68627219     0.62300
F1531       F  0.16860783  0.95957463  0.66553125    -0.22900
F1532       F  0.18730635  0.94259598  0.63910925    -0.20200
F1533       F  0.21566524  0.54138626  0.63616123    -0.19900
F1534       F  0.33609428  0.00045658  0.69539931    -0.20000
F1535       F  0.34062275  0.54274021  0.69959029    -0.20300
F1536       F  0.35411856  0.52608516  0.67098296    -0.23000
C1537       C  0.37242639  0.75925875  0.59550828    -0.05800
C1538       C  0.34510718  0.73436358  0.58378628     0.00100
C1539       C  0.35073610  0.71142384  0.57173858    -0.08500
C1540       C  0.38387545  0.71432768  0.57202569    -0.05800
C1541       C  0.41134621  0.73957667  0.58355691     0.00100
C1542       C  0.40555512  0.76227380  0.59571187    -0.08400
C1543       C  0.43373814  0.78898048  0.60926239     0.62000
H1544       H  0.36756924  0.77656879  0.60453207     0.12700
H1545       H  0.38882892  0.69718495  0.56290223     0.12700
C1546       C  0.32258731  0.68503263  0.55798463     0.62300
F1547       F  0.42081746  0.80433477  0.62202093    -0.22900
F1548       F  0.45951854  0.81481490  0.59770733    -0.20200
F1549       F  0.44790666  0.77327674  0.62103246    -0.19900
F1550       F  0.30976076  0.70131861  0.54562418    -0.20000
F1551       F  0.29577192  0.65990667  0.56933288    -0.20300
F1552       F  0.33516433  0.66863133  0.54580199    -0.23000
C1553       C  0.09854354  0.71250013  0.58801514    -0.05800
C1554       C  0.09908789  0.74245113  0.58066469     0.00100
C1555       C  0.13114965  0.77072843  0.57397812    -0.08500
C1556       C  0.16112153  0.76735174  0.57461200    -0.05800
C1557       C  0.16045615  0.73725620  0.58185257     0.00100
C1558       C  0.12851011  0.70928644  0.58892467    -0.08400
C1559       C  0.12553464  0.67628730  0.59783245     0.62000
H1560       H  0.07410857  0.69130717  0.59331474     0.12700
H1561       H  0.18562594  0.78852699  0.56936912     0.12700
C1562       C  0.13422759  0.80429782  0.56604683     0.62300
F1563       F  0.09290063  0.65471521  0.60584071    -0.22900
F1564       F  0.14960212  0.68443176  0.61319833    -0.20200
F1565       F  0.13116470  0.65794824  0.58304205    -0.19900
F1566       F  0.12761549  0.82107910  0.58136245    -0.20000
F1567       F  0.11084073  0.79735337  0.55043383    -0.20300
F1568       F  0.16721929  0.82676511  0.55878600    -0.23000
C1569       C  0.50133940  0.71412166  0.65362452    -0.05800
C1570       C  0.51301904  0.74607430  0.64360236     0.00100
C1571       C  0.03687507  0.77306495  0.65503876    -0.08500
C1572       C  0.03721019  0.77104320  0.67618463    -0.05800
C1573       C  0.51627576  0.74223925  0.68618522     0.00100
C1574       C  0.50266154  0.71159376  0.67469890    -0.08400
C1575       C  0.48827283  0.67623823  0.68461475     0.62000
H1576       H  0.49093867  0.69071471  0.64480747     0.12700
H1577       H  0.05446882  0.79362368  0.68495919     0.12700
C1578       C  0.06273620  0.80690229  0.64494580     0.62300
F1579       F  0.47367038  0.64966156  0.67072341    -0.22900
F1580       F  0.46269465  0.67126801  0.69823489    -0.20200
F1581       F  0.51466272  0.67398328  0.69452718    -0.19900
F1582       F  0.04521229  0.82183656  0.63577524    -0.20000
F1583       F  0.08188917  0.80083424  0.63083073    -0.20300
F1584       F  0.08607170  0.83054599  0.65859814    -0.23000
C1585       C  0.35390120  0.98511608  0.59633844    -0.05800
C1586       C  0.35040359  0.51262231  0.58033751     0.00100
C1587       C  0.37472803  0.52847878  0.56458185    -0.08500
C1588       C  0.40585954  0.52725171  0.56530629    -0.05800
C1589       C  0.41304407  0.51088168  0.58121544     0.00100
C1590       C  0.38466216  0.98325622  0.59655633    -0.08400
C1591       C  0.38987203  0.96182177  0.61267063     0.62000
H1592       H  0.33374727  0.97076195  0.60732638     0.12700
H1593       H  0.42490843  0.53906778  0.55343431     0.12700
C1594       C  0.36749180  0.54587500  0.54692114     0.62300
F1595       F  0.36299000  0.94827872  0.62647576    -0.22900
F1596       F  0.42053026  0.98227199  0.62303149    -0.20200
F1597       F  0.39127026  0.93446192  0.60392975    -0.19900
F1598       F  0.36665731  0.57487177  0.55343654    -0.20000
F1599       F  0.33580075  0.52308459  0.53822228    -0.20300
F1600       F  0.39284789  0.55626170  0.53226659    -0.23000
C1601       C  0.13075519  0.54428127  0.58553416    -0.05800
C1602       C  0.09991261  0.51195829  0.58568081     0.00100
C1603       C  0.10400852  0.97999228  0.57476987    -0.08500
C1604       C  0.13697034  0.98268930  0.57617925    -0.05800
C1605       C  0.16664734  0.51690247  0.58648244     0.00100
C1606       C  0.16406852  0.54756732  0.58601969    -0.08400
C1607       C  0.19574980  0.58382715  0.58595868     0.62000
H1608       H  0.12867167  0.56746522  0.58478389     0.12700
H1609       H  0.14109223  0.96311225  0.56922194     0.12700
C1610       C  0.07538447  0.95012236  0.56295927     0.62300
F1611       F  0.18659108  0.60940789  0.58616390    -0.22900
F1612       F  0.21520491  0.58873132  0.56881271    -0.20200
F1613       F  0.21591247  0.58831752  0.60289444    -0.19900
F1614       F  0.06143825  0.96268365  0.54871356    -0.20000
F1615       F  0.04952141  0.92775327  0.57590233    -0.20300
F1616       F  0.08769894  0.93123899  0.55291701    -0.23000
C1617       C  0.99638248  0.48445933  0.67774554    -0.05800
C1618       C  0.49223037  0.00499740  0.68706359     0.00100
C1619       C  0.48499389  0.02655100  0.67422360    -0.08500
C1620       C  0.48848736  0.02484793  0.65329980    -0.05800
C1621       C  0.99957382  0.50930829  0.64463967     0.00100
C1622       C  0.00109476  0.48388039  0.65689749    -0.08400
C1623       C  0.00900614  0.45699945  0.64829762     0.62000
H1624       H  0.99733187  0.46501705  0.68718188     0.12700
H1625       H  0.48268709  0.04064600  0.64328167     0.12700
C1626       C  0.47414378  0.05178499  0.68214131     0.62300
F1627       F  0.01454335  0.43840278  0.66324405    -0.22900
F1628       F  0.03881746  0.47324280  0.63675184    -0.20200
F1629       F  0.99074363  0.93027570  0.63711386    -0.19900
F1630       F  0.51195175  0.58087799  0.69682337    -0.20000
F1631       F  0.44230199  0.03380126  0.69167138    -0.20300
F1632       F  0.47064096  0.07123431  0.66689318    -0.23000
C1633       C  0.23873796  0.79862765  0.84132886    -0.05800
C1634       C  0.23077428  0.76841349  0.85224236     0.00100
C1635       C  0.22023016  0.73710197  0.84166343    -0.08500
C1636       C  0.22005750  0.73769650  0.82052693    -0.05800
C1637       C  0.22921503  0.76803723  0.80955844     0.00100
C1638       C  0.23825456  0.79905594  0.82004830    -0.08400
C1639       C  0.24854730  0.83262521  0.80888554     0.62000
H1640       H  0.24613306  0.82213552  0.84963929     0.12700
H1641       H  0.21290352  0.71418885  0.81226557     0.12700
C1642       C  0.20801984  0.70277579  0.85250257     0.62300
F1643       F  0.25939831  0.86027317  0.82190157    -0.22900
F1644       F  0.22033700  0.82956734  0.79807379    -0.20200
F1645       F  0.27562509  0.83999933  0.79585571    -0.19900
F1646       F  0.18238325  0.69736144  0.86617796    -0.20000
F1647       F  0.23561661  0.70285104  0.86243771    -0.20300
F1648       F  0.19416364  0.67513150  0.83931595    -0.23000
C1649       C  0.28645306  0.50136826  0.82221656    -0.05800
C1650       C  0.25683165  0.49640935  0.81155204     0.00100
C1651       C  0.23115488  0.97892469  0.82470798    -0.08500
C1652       C  0.23181606  0.97821173  0.84588348    -0.05800
C1653       C  0.25670489  0.49289708  0.85417211     0.00100
C1654       C  0.28716479  0.50013998  0.84337802    -0.08400
C1655       C  0.32075347  0.50781656  0.85401005     0.62000
H1656       H  0.30946277  0.50683537  0.81374969     0.12700
H1657       H  0.20817906  0.97076621  0.85423825     0.12700
C1658       C  0.19679551  0.96761571  0.81386706     0.62300
F1659       F  0.34827048  0.51921862  0.84073745    -0.22900
F1660       F  0.31667075  0.47815322  0.86332502    -0.20200
F1661       F  0.32947106  0.53346415  0.86818759    -0.19900
F1662       F  0.19104895  0.94256889  0.79979070    -0.20000
F1663       F  0.19749302  0.99567049  0.80435214    -0.20300
F1664       F  0.16891685  0.95371338  0.82700839    -0.23000
C1665       C  0.37565330  0.58516750  0.90907288    -0.05800
C1666       C  0.34609109  0.58630476  0.91571666     0.00100
C1667       C  0.35007121  0.61872349  0.92160821    -0.08500
C1668       C  0.38330479  0.64852290  0.92034904    -0.05800
C1669       C  0.41291126  0.64740645  0.91373194     0.00100
C1670       C  0.40895637  0.61488062  0.90799082    -0.08400
C1671       C  0.43925964  0.61100701  0.90050721     0.62000
H1672       H  0.37246257  0.56041739  0.90461712     0.12700
H1673       H  0.38644665  0.67324063  0.92482918     0.12700
C1674       C  0.31988930  0.62220787  0.92967945     0.62300
F1675       F  0.42857460  0.57779556  0.89384296    -0.22900
F1676       F  0.46296889  0.61803599  0.91594001    -0.20200
F1677       F  0.45535309  0.63343076  0.88458421    -0.19900
F1678       F  0.30437946  0.59941007  0.94553111    -0.20000
F1679       F  0.29567356  0.61529242  0.91456712    -0.20300
F1680       F  0.33060853  0.65523203  0.93668758    -0.23000
C1681       C  0.12616629  0.83702437  0.90531146    -0.05800
C1682       C  0.09863946  0.83317238  0.91747699     0.00100
C1683       C  0.10356700  0.86123302  0.92980005    -0.08500
C1684       C  0.13600701  0.89214581  0.92941718    -0.05800
C1685       C  0.16349268  0.89596393  0.91722814     0.00100
C1686       C  0.15836344  0.86813012  0.90468058    -0.08400
C1687       C  0.18606752  0.87168006  0.88996878     0.62000
H1688       H  0.12196803  0.81549013  0.89592589     0.12700
H1689       H  0.14025949  0.91372904  0.93876810     0.12700
C1690       C  0.07514545  0.85848708  0.94367187     0.62300
F1691       F  0.17381657  0.84356644  0.87719045    -0.22900
F1692       F  0.21433387  0.87403780  0.90033952    -0.20200
F1693       F  0.19666932  0.90104555  0.87826532    -0.19900
F1694       F  0.06302701  0.82914979  0.95558033    -0.20000
F1695       F  0.04795552  0.85679831  0.93239614    -0.20300
F1696       F  0.08709586  0.88678440  0.95628705    -0.23000
C1697       C  0.03688617  0.73555204  0.84450637    -0.05800
C1698       C  0.51182442  0.74337208  0.85236327     0.00100
C1699       C  0.48294291  0.73619647  0.83982471    -0.08500
C1700       C  0.48730821  0.73758906  0.81886448    -0.05800
C1701       C  0.51919020  0.74554255  0.81009305     0.00100
C1702       C  0.04110656  0.73551217  0.82352835    -0.08400
C1703       C  0.06859798  0.72784716  0.81543534     0.62000
H1704       H  0.05369153  0.73082015  0.85435139     0.12700
H1705       H  0.46552083  0.73205912  0.80903855     0.12700
C1706       C  0.44732604  0.72596944  0.84837341     0.62300
F1707       F  0.08846412  0.72471576  0.83063484    -0.22900
F1708       F  0.09097500  0.75431856  0.80282418    -0.20200
F1709       F  0.05255581  0.69691068  0.80508242    -0.19900
F1710       F  0.44848780  0.75387122  0.85809410    -0.20000
F1711       F  0.43730008  0.69877862  0.86179657    -0.20300
F1712       F  0.42207402  0.71545978  0.83348343    -0.23000
C1713       C  0.36584820  0.92192091  0.91151699    -0.05800
C1714       C  0.39534431  0.92027798  0.91800992     0.00100
C1715       C  0.39079065  0.88796177  0.92495732    -0.08500
C1716       C  0.35719786  0.85855560  0.92429619    -0.05800
C1717       C  0.32781233  0.86002973  0.91734246     0.00100
C1718       C  0.33218292  0.89263733  0.91114441    -0.08400
C1719       C  0.30189062  0.89696113  0.90387093     0.62000
H1720       H  0.36943416  0.94664514  0.90645095     0.12700
H1721       H  0.35365158  0.83380237  0.92927566     0.12700
C1722       C  0.42077830  0.88410403  0.93336675     0.62300
F1723       F  0.31264061  0.93032078  0.89729408    -0.22900
F1724       F  0.27879043  0.88990177  0.91947440    -0.20200
F1725       F  0.28514878  0.87485669  0.88796977    -0.19900
F1726       F  0.43786208  0.90827447  0.94832068    -0.20000
F1727       F  0.44382895  0.88866237  0.91815368    -0.20300
F1728       F  0.40945053  0.85165768  0.94171137    -0.23000
C1729       C  0.07824149  0.63617953  0.90840692    -0.05800
C1730       C  0.08041070  0.60666662  0.91390358     0.00100
C1731       C  0.11378445  0.61071415  0.91832801    -0.08500
C1732       C  0.14313717  0.64409986  0.91754756    -0.05800
C1733       C  0.14091427  0.67369049  0.91247672     0.00100
C1734       C  0.10773162  0.66957636  0.90745476    -0.08400
C1735       C  0.10294518  0.69976595  0.90081382     0.62000
H1736       H  0.05289082  0.63291331  0.90479394     0.12700
H1737       H  0.16845159  0.64735162  0.92121569     0.12700
C1738       C  0.11903509  0.58048758  0.92423294     0.62300
F1739       F  0.06919193  0.68897506  0.89448616    -0.22900
F1740       F  0.12483721  0.71701561  0.88488305    -0.20200
F1741       F  0.11018399  0.72229798  0.91667587    -0.19900
F1742       F  0.10980428  0.55762766  0.90835673    -0.20000
F1743       F  0.09904923  0.56372212  0.94089693    -0.20300
F1744       F  0.15337366  0.59106353  0.92909170    -0.23000
C1745       C  0.01345487  0.51525805  0.84406908    -0.05800
C1746       C  0.98424349  0.51268588  0.85388395     0.00100
C1747       C  0.45504910  0.00082690  0.84252644    -0.08500
C1748       C  0.45684068  0.00069242  0.82136290    -0.05800
C1749       C  0.48777638  0.51025488  0.81030746     0.00100
C1750       C  0.01539453  0.51441795  0.82298355    -0.08400
C1751       C  0.04841909  0.51854102  0.81347784     0.62000
H1752       H  0.03509577  0.51803994  0.85317361     0.12700
H1753       H  0.43344039  0.99198771  0.81238706     0.12700
C1754       C  0.42007282  0.98778877  0.85269340     0.62300
F1755       F  0.07461082  0.52689705  0.82755577    -0.22900
F1756       F  0.06072362  0.54478427  0.79925284    -0.20200
F1757       F  0.04160840  0.48788409  0.80448321    -0.19900
F1758       F  0.41985094  0.01443594  0.86310589    -0.20000
F1759       F  0.41406237  0.96126744  0.86592753    -0.20300
F1760       F  0.39292604  0.97518479  0.83891829    -0.23000
C1761       C  0.25424401  0.74756380  0.98557834    -0.05800
C1762       C  0.23043183  0.75618607  0.97679879     0.00100
C1763       C  0.20547367  0.75792073  0.98944770    -0.08500
C1764       C  0.20656456  0.75246819  0.01035309    -0.05800
C1765       C  0.23124272  0.74511091  0.01905346     0.00100
C1766       C  0.25490164  0.74160094  0.00636108    -0.08400
C1767       C  0.28021027  0.73062320  0.01447178     0.62000
H1768       H  0.27294150  0.74580355  0.97598498     0.12700
H1769       H  0.18843485  0.75466848  0.02023811     0.12700
C1770       C  0.17741358  0.76497111  0.98121096     0.62300
F1771       F  0.29575460  0.72226949  0.99916338    -0.22900
F1772       F  0.26277071  0.70168898  0.02663925    -0.20200
F1773       F  0.30629971  0.75729075  0.02541367    -0.19900
F1774       F  0.15869841  0.74147548  0.96622624    -0.20000
F1775       F  0.19252056  0.79828080  0.97358011    -0.20300
F1776       F  0.15407622  0.76192377  0.99593164    -0.23000
C1777       C  0.20854301  0.83583368  0.07388827    -0.05800
C1778       C  0.23550898  0.83353539  0.08379668     0.00100
C1779       C  0.26141987  0.86297595  0.09422298    -0.08500
C1780       C  0.25863097  0.89317556  0.09472994    -0.05800
C1781       C  0.23157311  0.89544250  0.08488183     0.00100
C1782       C  0.20641659  0.86640723  0.07382926    -0.08400
C1783       C  0.17820633  0.86774873  0.06129083     0.62000
H1784       H  0.18923166  0.81337708  0.06578494     0.12700
H1785       H  0.27794003  0.91559925  0.10285046     0.12700
C1786       C  0.29174054  0.86276994  0.10502974     0.62300
F1787       F  0.15996394  0.83845074  0.04959420    -0.22900
F1788       F  0.19305416  0.89603457  0.04845883    -0.20200
F1789       F  0.15460611  0.87011808  0.07374203    -0.19900
F1790       F  0.31334231  0.85999621  0.09115282    -0.20000
F1791       F  0.27943042  0.83525428  0.11838670    -0.20300
F1792       F  0.31162218  0.89285559  0.11583010    -0.23000
C1793       C  0.26089243  0.64479073  0.07215048    -0.05800
C1794       C  0.23179325  0.64499766  0.08041632     0.00100
C1795       C  0.20507360  0.61391984  0.08922543    -0.08500
C1796       C  0.20892648  0.58426135  0.08953783    -0.05800
C1797       C  0.23828704  0.58428877  0.08153727     0.00100
C1798       C  0.26464856  0.61510582  0.07242235    -0.08400
C1799       C  0.29633984  0.61679941  0.06254992     0.62000
H1800       H  0.28102917  0.66842366  0.06536918     0.12700
H1801       H  0.18886867  0.56055134  0.09629679     0.12700
C1802       C  0.17288896  0.61179264  0.09871544     0.62300
F1803       F  0.31603714  0.64766559  0.05230070    -0.22900
F1804       F  0.28590926  0.59017151  0.04884408    -0.20200
F1805       F  0.31746203  0.61411984  0.07705353    -0.19900
F1806       F  0.15300674  0.61619917  0.08408702    -0.20000
F1807       F  0.18265746  0.63708103  0.11324593    -0.20300
F1808       F  0.15207408  0.58006952  0.10788835    -0.23000
C1809       C  0.21932848  0.99494261  0.01168410    -0.05800
C1810       C  0.24803225  0.49313080  0.02132618     0.00100
C1811       C  0.27728166  0.49590728  0.01082266    -0.08500
C1812       C  0.27664624  0.49565350  0.98960801    -0.05800
C1813       C  0.24810081  0.49258706  0.97853122     0.00100
C1814       C  0.22032394  0.99481312  0.99049272    -0.08400
C1815       C  0.19266985  0.99849676  0.97875344     0.62000
H1816       H  0.20008453  0.99911393  0.01918803     0.12700
H1817       H  0.29890745  0.49835152  0.98139616     0.12700
C1818       C  0.30889553  0.49845870  0.02163961     0.62300
F1819       F  0.16705137  0.99717646  0.99117889    -0.22900
F1820       F  0.17653681  0.97180126  0.96505928    -0.20200
F1821       F  0.20777948  0.02997750  0.96878343    -0.19900
F1822       F  0.29850019  0.47136819  0.03517576    -0.20000
F1823       F  0.32647342  0.52964874  0.03168247    -0.20300
F1824       F  0.33208729  0.49681100  0.00843624    -0.23000
C1825       C  0.02749738  0.74242801  0.01092151    -0.05800
C1826       C  0.50058677  0.74714560  0.01876267     0.00100
C1827       C  0.47479264  0.74791667  0.00630308    -0.08500
C1828       C  0.47692430  0.74500530  0.98535528    -0.05800
C1829       C  0.50293432  0.74007746  0.97647850     0.00100
C1830       C  0.02833389  0.73752643  0.99011846    -0.08400
C1831       C  0.05600269  0.73010795  0.98194924     0.62000
H1832       H  0.04680152  0.74150005  0.02061588     0.12700
H1833       H  0.45780035  0.74625533  0.97566268     0.12700
C1834       C  0.44532757  0.75212826  0.01482307     0.62300
F1835       F  0.07794600  0.73018473  0.99693692    -0.22900
F1836       F  0.07631175  0.75502057  0.96793169    -0.20200
F1837       F  0.04017408  0.69769970  0.97318139    -0.19900
F1838       F  0.45870612  0.78139574  0.02669621    -0.20000
F1839       F  0.42361395  0.72330148  0.02618706    -0.20300
F1840       F  0.42529501  0.75549758  0.99982278    -0.23000
C1841       C  0.48020853  0.85168737  0.07588012    -0.05800
C1842       C  0.51163022  0.85199197  0.07992277     0.00100
C1843       C  0.04282280  0.88519070  0.08608047    -0.08500
C1844       C  0.03994370  0.91539737  0.08582240    -0.05800
C1845       C  0.50756961  0.91414576  0.08058610     0.00100
C1846       C  0.47732475  0.88181596  0.07629858    -0.08400
C1847       C  0.44186657  0.87839746  0.07211641     0.62000
H1848       H  0.45736246  0.82717732  0.07243794     0.12700
H1849       H  0.06212580  0.93977522  0.09025917     0.12700
C1850       C  0.07695948  0.88784385  0.09294696     0.62300
F1851       F  0.41698449  0.84490018  0.06710913    -0.22900
F1852       F  0.44419418  0.89960658  0.05618298    -0.20200
F1853       F  0.43026002  0.88731337  0.08909596    -0.19900
F1854       F  0.09206529  0.88020873  0.07711533    -0.20000
F1855       F  0.07094807  0.86508961  0.10870554    -0.20300
F1856       F  0.10066417  0.92075804  0.09958916    -0.23000
C1857       C  0.02555451  0.65753962  0.06955562    -0.05800
C1858       C  0.50217429  0.66139589  0.08215492     0.00100
C1859       C  0.48174074  0.63500260  0.09620523    -0.08500
C1860       C  0.48206208  0.60354590  0.09552088    -0.05800
C1861       C  0.50259620  0.59808304  0.08165655     0.00100
C1862       C  0.02597903  0.62615410  0.06900733    -0.08400
C1863       C  0.04739800  0.62096143  0.05306397     0.62000
H1864       H  0.04098303  0.67797662  0.05893529     0.12700
H1865       H  0.46656414  0.58299575  0.10606106     0.12700
C1866       C  0.46074901  0.64036966  0.11233713     0.62300
F1867       F  0.06150406  0.64804910  0.03936589    -0.22900
F1868       F  0.02659548  0.59085132  0.04251778    -0.20200
F1869       F  0.07459151  0.61887653  0.06204741    -0.19900
F1870       F  0.43339086  0.64247166  0.10361197    -0.20000
F1871       F  0.48182561  0.67055697  0.12273696    -0.20300
F1872       F  0.44700664  0.61341488  0.12612213    -0.23000
C1873       C  0.52935147  0.02221365  0.98654439    -0.05800
C1874       C  0.99088743  0.51017196  0.97867173     0.00100
C1875       C  0.96732094  0.51409049  0.99142695    -0.08500
C1876       C  0.97068474  0.51218429  0.01244771    -0.05800
C1877       C  0.99590899  0.50573374  0.02118401     0.00100
C1878       C  0.53424723  0.02236179  0.00753442    -0.08400
C1879       C  0.57073192  0.03389882  0.01549869     0.62000
H1880       H  0.55130146  0.03061133  0.97652504     0.12700
H1881       H  0.95368089  0.51614057  0.02236645     0.12700
C1882       C  0.93808987  0.51937369  0.98322491     0.62300
F1883       F  0.59447380  0.04150698  0.00014853    -0.22900
F1884       F  0.57051305  0.00777758  0.02702929    -0.20200
F1885       F  0.08278324  0.06210210  0.02588992    -0.19900
F1886       F  0.41627300  0.49266257  0.96869512    -0.20000
F1887       F  0.95186115  0.55128389  0.97382431    -0.20300
F1888       F  0.91616868  0.51840158  0.99828657    -0.23000
C1889       C  0.27665382  0.75619037  0.48765584    -0.05800
C1890       C  0.24811347  0.72844313  0.47807314     0.00100
C1891       C  0.22165239  0.70206797  0.49012857    -0.08500
C1892       C  0.22481628  0.70495230  0.51125463    -0.05800
C1893       C  0.25310029  0.73301596  0.52079035     0.00100
C1894       C  0.27986423  0.75900114  0.50873718    -0.08400
C1895       C  0.31221113  0.78933857  0.51780973     0.62000
H1896       H  0.29681765  0.77596233  0.47837784     0.12700
H1897       H  0.20472540  0.68525693  0.52060539     0.12700
C1898       C  0.18979066  0.67122059  0.48104777     0.62300
F1899       F  0.33694356  0.80822874  0.50335910    -0.22900
F1900       F  0.32738581  0.77738715  0.53162693    -0.20200
F1901       F  0.30338496  0.81155270  0.52714780    -0.19900
F1902       F  0.19970230  0.65034727  0.47109140    -0.20000
F1903       F  0.17326211  0.68245363  0.46775153    -0.20300
F1904       F  0.16581692  0.65115877  0.49556961    -0.23000
C1905       C  0.26129180  0.98689082  0.51333785    -0.05800
C1906       C  0.25354333  0.51328522  0.52122596     0.00100
C1907       C  0.24485631  0.53475321  0.50954474    -0.08500
C1908       C  0.24541468  0.53291042  0.48840895    -0.05800
C1909       C  0.25323999  0.50969527  0.47870992     0.00100
C1910       C  0.26351570  0.98547515  0.49229360    -0.08400
C1911       C  0.26691121  0.95601418  0.48320111     0.62000
H1912       H  0.26051664  0.96629736  0.52249125     0.12700
H1913       H  0.23925706  0.54938364  0.47922314     0.12700
C1914       C  0.23367778  0.55845578  0.51925399     0.62300
F1915       F  0.27303905  0.93719492  0.49773582    -0.22900
F1916       F  0.29458655  0.96912200  0.46994774    -0.20200
F1917       F  0.23651115  0.93348588  0.47321993    -0.19900
F1918       F  0.26177327  0.58544802  0.52882617    -0.20000
F1919       F  0.20763486  0.54001751  0.53310607    -0.20300
F1920       F  0.22082236  0.57246061  0.50521559    -0.23000
C1921       C  0.50519460  0.71341928  0.50961541    -0.05800
C1922       C  0.50066892  0.73904152  0.51909389     0.00100
C1923       C  0.99541460  0.76167160  0.50764031    -0.08500
C1924       C  0.99613031  0.75959032  0.48657675    -0.05800
C1925       C  0.49887278  0.73360506  0.47656293     0.00100
C1926       C  0.50433481  0.71013895  0.48851416    -0.08400
C1927       C  0.51015297  0.68235041  0.47920504     0.62000
H1928       H  0.50980100  0.69604796  0.51896330     0.12700
H1929       H  0.99379822  0.77855167  0.47740360     0.12700
C1930       C  0.98872878  0.78892057  0.51694984     0.62300
F1931       F  0.51885748  0.66512285  0.49351582    -0.22900
F1932       F  0.53702996  0.69712627  0.46544641    -0.20200
F1933       F  0.48002682  0.65813272  0.46966038    -0.19900
F1934       F  0.01868619  0.81406613  0.52617830    -0.20000
F1935       F  0.96227324  0.77364435  0.53094633    -0.20300
F1936       F  0.97865675  0.80507403  0.50266393    -0.23000
C1937       C  0.37871066  0.70973314  0.40144438    -0.05800
C1938       C  0.40362897  0.72974981  0.41604125     0.00100
C1939       C  0.39450272  0.74549437  0.43149358    -0.08500
C1940       C  0.36168646  0.74327122  0.43068187    -0.05800
C1941       C  0.33725416  0.72441082  0.41564557     0.00100
C1942       C  0.34537936  0.70653578  0.40101797    -0.08400
C1943       C  0.31950753  0.68507449  0.38473197     0.62000
H1944       H  0.38576353  0.69687238  0.39020192     0.12700
H1945       H  0.35462410  0.75607843  0.44198284     0.12700
C1946       C  0.41832786  0.76271652  0.44938898     0.62300
F1947       F  0.33366918  0.67190837  0.37126898    -0.22900
F1948       F  0.30917143  0.70527169  0.37406160    -0.20200
F1949       F  0.29069575  0.65745481  0.39337656    -0.19900
F1950       F  0.44834808  0.79195948  0.44326295    -0.20000
F1951       F  0.42686906  0.73971530  0.45830152    -0.20300
F1952       F  0.40254352  0.77255593  0.46380305    -0.23000
C1953       C  0.11828221  0.75524089  0.42965240    -0.05800
C1954       C  0.09543191  0.74026467  0.41333744     0.00100
C1955       C  0.10485775  0.72582939  0.39730954    -0.08500
C1956       C  0.13609130  0.72484546  0.39883523    -0.05800
C1957       C  0.15849205  0.73889104  0.41541184     0.00100
C1958       C  0.14995618  0.75498110  0.43095033    -0.08400
C1959       C  0.17359497  0.77080685  0.44908238     0.62000
H1960       H  0.11074908  0.76659736  0.44156873     0.12700
H1961       H  0.14346116  0.71335985  0.38697151     0.12700
C1962       C  0.08278182  0.71282113  0.37835344     0.62300
F1963       F  0.15903694  0.78260440  0.46314365    -0.15700
F1964       F  0.20495746  0.79856383  0.44307423    -0.20200
F1965       F  0.17964449  0.74635050  0.45832015    -0.19900
F1966       F  0.07719322  0.73854449  0.37049397    -0.20000
F1967       F  0.05111116  0.68400581  0.38271276    -0.20300
F1968       F  0.09884440  0.70374151  0.36370986    -0.23000
C1969       C  0.48240216  0.98939620  0.48771533    -0.05800
C1970       C  0.01111653  0.52098285  0.47847504     0.00100
C1971       C  0.04191418  0.54105087  0.48981242    -0.08500
C1972       C  0.03999743  0.53877453  0.51095156    -0.05800
C1973       C  0.00864293  0.51677339  0.52085607     0.00100
C1974       C  0.47871888  0.98677438  0.50872717    -0.08400
C1975       C  0.44330278  0.96230793  0.51776321     0.62000
H1976       H  0.46035897  0.97306106  0.47819858     0.12700
H1977       H  0.06319444  0.55374328  0.51996119     0.12700
C1978       C  0.07678747  0.56360983  0.47970615     0.62300
F1979       F  0.41751338  0.94794932  0.50318586    -0.22900
F1980       F  0.43407462  0.98010807  0.53107416    -0.20200
F1981       F  0.44436856  0.93549996  0.52775684    -0.19900
F1982       F  0.07626350  0.59054144  0.46951627    -0.20000
F1983       F  0.08353130  0.54406313  0.46629277    -0.20300
F1984       F  0.10386734  0.57774900  0.49351169    -0.23000
C1985       C  0.38360721  0.48474196  0.40777653    -0.05800
C1986       C  0.41220254  0.51253292  0.41727030     0.00100
C1987       C  0.41571764  0.03567766  0.43055449    -0.08500
C1988       C  0.38297897  0.03373922  0.43008601    -0.05800
C1989       C  0.34571563  0.50738968  0.41717670     0.00100
C1990       C  0.35027146  0.48145059  0.40764369    -0.08400
C1991       C  0.32058491  0.45070316  0.39699838     0.62000
H1992       H  0.38767029  0.46561341  0.40032475     0.12700
H1993       H  0.37777607  0.04990412  0.44007233     0.12700
C1994       C  0.44344754  0.06008511  0.44522692     0.62300
F1995       F  0.34934528  0.95387569  0.37456323    -0.22900
F1996       F  0.32490516  0.98723997  0.37709225    -0.20200
F1997       F  0.29586790  0.42960338  0.41088267    -0.19900
F1998       F  0.43074196  0.07543591  0.45813579    -0.20000
F1999       F  0.46158614  0.59016173  0.42682764    -0.20300
F2000       F  0.45094580  0.55304110  0.45272293    -0.23000
C2001       C  0.15797105  0.53390435  0.40308825    -0.05800
C2002       C  0.16103141  0.51069079  0.41623113     0.00100
C2003       C  0.14526663  0.99521577  0.43312680    -0.08500
C2004       C  0.11397137  0.99606157  0.43176873    -0.05800
C2005       C  0.10002881  0.51596553  0.41563978     0.00100
C2006       C  0.12759675  0.53657080  0.40228331    -0.08400
C2007       C  0.12458989  0.56018777  0.38672760     0.62000
H2008       H  0.17955016  0.54969594  0.39320353     0.12700
H2009       H  0.09500427  0.98517588  0.44375187     0.12700
C2010       C  0.15320776  0.98047519  0.45180808     0.62300
F2011       F  0.15201969  0.57340598  0.37328810    -0.22900
F2012       F  0.12462763  0.58776298  0.39617953    -0.20200
F2013       F  0.09407202  0.54192778  0.37579610    -0.19900
F2014       F  0.18494691  0.00474335  0.45984134    -0.20000
F2015       F  0.15447554  0.95099155  0.44692265    -0.20300
F2016       F  0.12814321  0.97176657  0.46648148    -0.23000
C2017       C  0.26048138  0.73303734  0.17582734    -0.05800
C2018       C  0.23562475  0.73760498  0.18631093     0.00100
C2019       C  0.20999879  0.74126360  0.17526046    -0.08500
C2020       C  0.21076297  0.74079881  0.15406594    -0.05800
C2021       C  0.23590343  0.73662540  0.14359151     0.00100
C2022       C  0.26080057  0.73185091  0.15467707    -0.08400
C2023       C  0.28695045  0.72435754  0.14444390     0.62000
H2024       H  0.27974351  0.73009877  0.18444244     0.12700
H2025       H  0.19174010  0.74407811  0.14541827     0.12700
C2026       C  0.18248330  0.74656882  0.18560236     0.62300
F2027       F  0.30422475  0.71452147  0.15812781    -0.22900
F2028       F  0.31162985  0.75364050  0.13452926    -0.20200
F2029       F  0.26999909  0.69763233  0.13084185    -0.19900
F2030       F  0.19817296  0.77396040  0.19888357    -0.20000
F2031       F  0.15969626  0.71682487  0.19592164    -0.20300
F2032       F  0.16316866  0.75391009  0.17197829    -0.23000
C2033       C  0.22093775  0.71154174  0.32038728    -0.05800
C2034       C  0.24946026  0.73914164  0.31071091     0.00100
C2035       C  0.27751934  0.76390453  0.32261818    -0.08500
C2036       C  0.27541197  0.76027661  0.34372202    -0.05800
C2037       C  0.24681412  0.73270766  0.35336026     0.00100
C2038       C  0.21904387  0.70759473  0.34142974    -0.08400
C2039       C  0.18713072  0.67688636  0.35056629     0.62000
H2040       H  0.19998556  0.69247504  0.31118972     0.12700
H2041       H  0.29656727  0.77898056  0.35296277     0.12700
C2042       C  0.30931562  0.79446648  0.31338693     0.62300
F2043       F  0.17247675  0.68823940  0.36477033    -0.22900
F2044       F  0.19652053  0.65449268  0.35944648    -0.20200
F2045       F  0.16176793  0.65838452  0.33627277    -0.19900
F2046       F  0.29899148  0.81287991  0.30104078    -0.20000
F2047       F  0.32783780  0.78282164  0.30237911    -0.20300
F2048       F  0.33156875  0.81697244  0.32784720    -0.23000
C2049       C  0.26871737  0.89625441  0.25179765    -0.05800
C2050       C  0.23594277  0.89423084  0.25127891     0.00100
C2051       C  0.20560578  0.86087274  0.25001459    -0.08500
C2052       C  0.20965281  0.83140358  0.24929512    -0.05800
C2053       C  0.24244619  0.83341691  0.24980943     0.00100
C2054       C  0.27276511  0.86678861  0.25107994    -0.08400
C2055       C  0.30951098  0.87208342  0.25173745     0.62000
H2056       H  0.29167622  0.92156598  0.25278003     0.12700
H2057       H  0.18667487  0.80611017  0.24828635     0.12700
C2058       C  0.16885465  0.85562615  0.24932214     0.62300
F2059       F  0.33462600  0.90663789  0.25351499    -0.22900
F2060       F  0.31617629  0.85992069  0.23420216    -0.20200
F2061       F  0.31316015  0.85486649  0.26813540    -0.19900
F2062       F  0.16527998  0.87295389  0.23292051    -0.20000
F2063       F  0.16215002  0.86770667  0.26688645    -0.20300
F2064       F  0.14371608  0.82108351  0.24750935    -0.23000
C2065       C  0.22773946  0.62499147  0.26430168    -0.05800
C2066       C  0.24398443  0.64787628  0.24820649     0.00100
C2067       C  0.26000385  0.63878376  0.23286115    -0.08500
C2068       C  0.25929750  0.60685265  0.23424123    -0.05800
C2069       C  0.24279192  0.58384230  0.25022869     0.00100
C2070       C  0.22716091  0.59312161  0.26574219    -0.08400
C2071       C  0.21133784  0.57026955  0.28415419     0.62000
H2072       H  0.21588769  0.63259342  0.27593100     0.12700
H2073       H  0.27111207  0.59924408  0.22259709     0.12700
C2074       C  0.27641171  0.66197854  0.21468489     0.62300
F2075       F  0.20070398  0.58579503  0.29826005    -0.22900
F2076       F  0.23577422  0.56374715  0.29318930    -0.20200
F2077       F  0.18260624  0.53930129  0.27867857    -0.19900
F2078       F  0.30546003  0.69242107  0.22053387    -0.20000
F2079       F  0.25256793  0.66943459  0.20571271    -0.20300
F2080       F  0.28672832  0.64639309  0.20044798    -0.23000
C2081       C  0.24278601  0.97008109  0.15745520    -0.05800
C2082       C  0.23338497  0.48747863  0.14549288     0.00100
C2083       C  0.21226367  0.49669702  0.15686476    -0.08500
C2084       C  0.21400205  0.49593612  0.17803564    -0.05800
C2085       C  0.22664194  0.98245442  0.18990991     0.00100
C2086       C  0.24364716  0.96843070  0.17855549    -0.08400
C2087       C  0.26247669  0.95157934  0.18864638     0.62000
H2088       H  0.25601214  0.95989333  0.14852185     0.12700
H2089       H  0.19853459  0.50346688  0.18700385     0.12700
C2090       C  0.18879894  0.50823510  0.14675837     0.62300
F2091       F  0.27203805  0.93459792  0.17492353    -0.22900
F2092       F  0.24102657  0.92752979  0.20273712    -0.20200
F2093       F  0.30625815  0.48858960  0.19620071    -0.19900
F2094       F  0.16339826  0.99423090  0.13682688    -0.20000
F2095       F  0.20790330  0.53503482  0.13345311    -0.20300
F2096       F  0.17364781  0.51980125  0.16056726    -0.23000
C2097       C  0.23325593  0.97218878  0.34757365    -0.05800
C2098       C  0.25092663  0.50506285  0.35429471     0.00100
C2099       C  0.27293424  0.53272215  0.34118525    -0.08500
C2100       C  0.26943105  0.52694672  0.32027450    -0.05800
C2101       C  0.24583847  0.99443229  0.31344636     0.00100
C2102       C  0.22715505  0.96643986  0.32680764    -0.08400
C2103       C  0.20138821  0.93041186  0.31925120     0.62000
H2104       H  0.21854380  0.95087152  0.35780188     0.12700
H2105       H  0.28579282  0.54764466  0.31002998     0.12700
C2106       C  0.30011400  0.56816852  0.34884378     0.62300
F2107       F  0.19005183  0.90600400  0.33455398    -0.22900
F2108       F  0.21686789  0.92037899  0.30477540    -0.20200
F2109       F  0.16974858  0.43390029  0.30710626    -0.19900
F2110       F  0.32819892  0.06699492  0.36090854    -0.20000
F2111       F  0.28386927  0.58374841  0.35844414    -0.20300
F2112       F  0.31987684  0.58997297  0.33338854    -0.23000
C2113       C  0.04001101  0.75819514  0.17595581    -0.05800
C2114       C  0.51288905  0.76159009  0.18529820     0.00100
C2115       C  0.48714090  0.76458304  0.17393870    -0.08500
C2116       C  0.48834938  0.76394181  0.15283560    -0.05800
C2117       C  0.51402938  0.76033435  0.14264762     0.00100
C2118       C  0.04149443  0.75768336  0.15481194    -0.08400
C2119       C  0.06847745  0.75097613  0.14494710     0.62000
H2120       H  0.05836857  0.75437674  0.18494054     0.12700
H2121       H  0.46895142  0.76630481  0.14400909     0.12700
C2122       C  0.45870996  0.76906261  0.18378828     0.62300
F2123       F  0.08628870  0.74229891  0.15892165    -0.22900
F2124       F  0.09258795  0.78038318  0.13488041    -0.20200
F2125       F  0.05248811  0.72387477  0.13151696    -0.19900
F2126       F  0.47330632  0.79602263  0.19740189    -0.20000
F2127       F  0.43553126  0.73881677  0.19356150    -0.20300
F2128       F  0.43995441  0.77658602  0.16985485    -0.23000
C2129       C  0.98186443  0.72670311  0.31861281    -0.05800
C2130       C  0.51296403  0.75308718  0.30983953     0.00100
C2131       C  0.54085048  0.77444737  0.32303208    -0.08500
C2132       C  0.53571935  0.76915398  0.34396941    -0.05800
C2133       C  0.50453465  0.74272206  0.35217926     0.00100
C2134       C  0.97751055  0.72108548  0.33951138    -0.08400
C2135       C  0.94432116  0.69032339  0.34740607     0.62000
H2136       H  0.96160259  0.70889885  0.30856097     0.12700
H2137       H  0.55649132  0.78542706  0.35424531     0.12700
C2138       C  0.57586534  0.80277641  0.31537108     0.62300
F2139       F  0.92026344  0.67343102  0.33221747    -0.22900
F2140       F  0.92892905  0.70129256  0.36137925    -0.20200
F2141       F  0.95202500  0.66667884  0.35624427    -0.19900
F2142       F  0.57126278  0.82557237  0.30321705    -0.20000
F2143       F  0.59193187  0.78817644  0.30460259    -0.20300
F2144       F  0.59807883  0.82164604  0.33092062    -0.23000
C2145       C  0.48920120  0.85471591  0.25968941    -0.05800
C2146       C  0.51665190  0.85430312  0.24941222     0.00100
C2147       C  0.04218085  0.88525906  0.24018277    -0.08500
C2148       C  0.03897593  0.91519632  0.24106689    -0.05800
C2149       C  0.51131176  0.91537038  0.25114036     0.00100
C2150       C  0.48599037  0.88459971  0.26081370    -0.08400
C2151       C  0.45601595  0.88308949  0.27267734     0.62000
H2152       H  0.46998110  0.83109595  0.26694068     0.12700
H2153       H  0.05889608  0.93903457  0.23436433     0.12700
C2154       C  0.07310322  0.88698580  0.22928239     0.62300
F2155       F  0.43773134  0.85224624  0.28317741    -0.22900
F2156       F  0.43290874  0.88587941  0.25972885    -0.20200
F2157       F  0.46864965  0.90972373  0.28650346    -0.19900
F2158       F  0.06154043  0.86142476  0.21479572    -0.20000
F2159       F  0.09443318  0.88261179  0.24288288    -0.20300
F2160       F  0.09299337  0.91852159  0.21971388    -0.23000
C2161       C  0.48313574  0.60370061  0.25446137    -0.05800
C2162       C  0.51109060  0.60165075  0.24609317     0.00100
C2163       C  0.04205094  0.63369048  0.24031018    -0.08500
C2164       C  0.04053560  0.66459904  0.24046570    -0.05800
C2165       C  0.51038459  0.66517697  0.24660974     0.00100
C2166       C  0.48225728  0.63481279  0.25509814    -0.08400
C2167       C  0.45170674  0.63491617  0.26539414     0.62000
H2168       H  0.46182360  0.58047982  0.26087179     0.12700
H2169       H  0.06260627  0.68836837  0.23515861     0.12700
C2170       C  0.07485115  0.63473871  0.23254796     0.62300
F2171       F  0.43011784  0.60374525  0.27490008    -0.22900
F2172       F  0.43182159  0.64052865  0.25132655    -0.20200
F2173       F  0.46382172  0.66053868  0.27986054    -0.19900
F2174       F  0.06638214  0.61072776  0.21736395    -0.20000
F2175       F  0.09135883  0.62764267  0.24809557    -0.20300
F2176       F  0.09838755  0.66689370  0.22476206    -0.23000
C2177       C  0.48294234  0.98038883  0.15492934    -0.05800
C2178       C  0.50409574  0.50421595  0.14426776     0.00100
C2179       C  0.03420364  0.53078981  0.15707672    -0.08500
C2180       C  0.03250153  0.52843985  0.17820110    -0.05800
C2181       C  0.50191320  0.50105902  0.18697353     0.00100
C2182       C  0.48028160  0.97836687  0.17603207    -0.08400
C2183       C  0.44776330  0.94887349  0.18550728     0.62000
H2184       H  0.46145909  0.96162960  0.14589767     0.12700
H2185       H  0.05381576  0.54775809  0.18709422     0.12700
C2186       C  0.06576633  0.56102757  0.14737446     0.62300
F2187       F  0.42627030  0.92495961  0.17136427    -0.22900
F2188       F  0.42876510  0.96176681  0.19483262    -0.20200
F2189       F  0.95954148  0.93225380  0.19907997    -0.19900
F2190       F  0.55215705  0.57734789  0.13286509    -0.20000
F2191       F  0.08476570  0.54908085  0.13712651    -0.20300
F2192       F  0.08770162  0.58476745  0.16146198    -0.23000
C2193       C  0.48649170  0.98092977  0.32193730    -0.05800
C2194       C  0.00755428  0.51198049  0.31203031     0.00100
C2195       C  0.02306552  0.54339050  0.32276104    -0.08500
C2196       C  0.02120273  0.54208102  0.34386248    -0.05800
C2197       C  0.00409294  0.51047774  0.35455294     0.00100
C2198       C  0.48515859  0.97892871  0.34306822    -0.08400
C2199       C  0.45801540  0.94533485  0.35286815     0.62000
H2200       H  0.46920251  0.95849927  0.31308118     0.12700
H2201       H  0.03339150  0.56612151  0.35214353     0.12700
C2202       C  0.04048884  0.57808934  0.31192033     0.62300
F2203       F  0.43556790  0.92177985  0.33886855    -0.22900
F2204       F  0.43657690  0.44333638  0.36392421    -0.20200
F2205       F  0.47425588  0.92993480  0.36298965    -0.19900
F2206       F  0.01742130  0.57948248  0.29828328    -0.20000
F2207       F  0.08247086  0.07408444  0.30212093    -0.20300
F2208       F  0.05103629  0.60547979  0.32510335    -0.23000
O2209       O  0.97625982  0.49110407  0.22063617    -0.73000
O2210       O  0.97848287  0.49630627  0.28059203    -0.74000
O2211       O  0.98011174  0.03851085  0.24871502    -0.62600
O2212       O  0.97477062  0.44715079  0.25237611    -0.71000
O2213       O  0.53046467  0.47241298  0.25108867    -0.70500
O2214       O  0.53694595  0.06678934  0.24844268    -0.61800
O2215       O  0.53851497  0.02406322  0.27979149    -0.74300
O2216       O  0.53729413  0.02001906  0.21960879    -0.73100
Cu2217     Cu  0.97565498  0.49289376  0.25063259     1.04600
Cu2218     Cu  0.53988637  0.02305576  0.24968806     1.04300
C2219       C  0.00865313  0.00578407  0.20952772     0.93200
C2220       C  0.50560593  0.50966910  0.28861109     0.92400
C2221       C  0.50791867  0.06647955  0.24822106     0.84500
C2222       C  0.50108881  0.44444714  0.25174779     0.90800
O2223       O  0.97469954  0.23797711  0.28266183    -0.73000
O2224       O  0.97639966  0.24551060  0.22248308    -0.74000
O2225       O  0.97466347  0.19618731  0.25060864    -0.62600
O2226       O  0.97679360  0.28750710  0.25437731    -0.71000
O2227       O  0.53303375  0.31358973  0.25468199    -0.70500
O2228       O  0.53116355  0.22253009  0.25074046    -0.61800
O2229       O  0.53305945  0.27182587  0.22259219    -0.74300
O2230       O  0.53109969  0.26396846  0.28286972    -0.73100
Cu2231     Cu  0.97366357  0.24087440  0.25252860     1.04600
Cu2232     Cu  0.53408601  0.26897753  0.25276647     1.04300
C2233       C  0.00311478  0.24986970  0.29266892     0.93200
C2234       C  0.00541515  0.26038653  0.21322247     0.92400
C2235       C  0.00304756  0.19522002  0.25047746     0.84500
C2236       C  0.00601554  0.31568359  0.25514002     0.90800
O2237       O  0.71222910  0.47891799  0.22003693    -0.73000
O2238       O  0.71455774  0.48085777  0.28065777    -0.74000
O2239       O  0.70636519  0.01994380  0.25275138    -0.62600
O2240       O  0.71101051  0.43376847  0.25105785    -0.71000
O2241       O  0.76836375  0.45949668  0.25084265    -0.70500
O2242       O  0.76386286  0.04917108  0.25066028    -0.61800
O2243       O  0.76882057  0.00619946  0.28064134    -0.74300
O2244       O  0.76135226  0.00279845  0.22068391    -0.73100
Cu2245     Cu  0.71121538  0.47883324  0.25045448     1.04600
Cu2246     Cu  0.76677869  0.00536683  0.25058860     1.04300
C2247       C  0.74083418  0.49117130  0.21032971     0.93200
C2248       C  0.74381538  0.49486054  0.28987608     0.92400
C2249       C  0.73478190  0.04872887  0.25188609     0.84500
C2250       C  0.73871048  0.43167368  0.25127264     0.90800
O2251       O  0.71129540  0.22580154  0.28156076    -0.73000
O2252       O  0.70519926  0.22560953  0.22126236    -0.74000
O2253       O  0.70797701  0.18035406  0.25081498    -0.62600
O2254       O  0.70918144  0.27169418  0.25233879    -0.71000
O2255       O  0.76655168  0.29920626  0.25025574    -0.70500
O2256       O  0.76554470  0.20876191  0.24941016    -0.61800
O2257       O  0.76275447  0.25307133  0.21964535    -0.74300
O2258       O  0.76907502  0.25440131  0.27992634    -0.73100
Cu2259     Cu  0.70636434  0.22492004  0.25153292     1.04600
Cu2260     Cu  0.76792835  0.25485373  0.24972124     1.04300
C2261       C  0.74105912  0.23995125  0.29017954     0.93200
C2262       C  0.73305729  0.23894023  0.21086718     0.92400
C2263       C  0.73681246  0.18023986  0.24988820     0.84500
C2264       C  0.73828792  0.30009151  0.25181695     0.90800
O2265       O  0.98298685  0.04027076  0.41640349    -0.73000
O2266       O  0.57290885  0.03904462  0.41519640    -0.74000
O2267       O  0.52566141  0.03856794  0.38588148    -0.62600
O2268       O  0.53020628  0.04125997  0.44631487    -0.71000
O2269       O  0.99504821  0.49036867  0.44766079    -0.70500
O2270       O  0.99117040  0.48486511  0.38771582    -0.61800
O2271       O  0.53770230  0.48610506  0.41614046    -0.74300
O2272       O  0.94764444  0.48718467  0.41793215    -0.73100
Cu2273     Cu  0.52919714  0.04207013  0.41604834     1.04600
Cu2274     Cu  0.99207107  0.48561914  0.41776195     1.04300
C2275       C  0.95424649  0.01175304  0.41707867     0.93200
C2276       C  0.57235646  0.01011416  0.41584024     0.92400
C2277       C  0.51055401  0.00942905  0.37680739     0.84500
C2278       C  0.51497671  0.01292176  0.45625464     0.90800
O2279       O  0.93117149  0.20534048  0.41939363    -0.73000
O2280       O  0.52089591  0.20358114  0.41844512    -0.74000
O2281       O  0.97698817  0.20521935  0.44997292    -0.62600
O2282       O  0.97597036  0.20494735  0.38900387    -0.71000
O2283       O  0.50527397  0.26190102  0.38882476    -0.70500
O2284       O  0.50617360  0.26242232  0.44887610    -0.61800
O2285       O  0.55020584  0.26090670  0.41868095    -0.74300
O2286       O  0.96046692  0.26268595  0.41903535    -0.73100
Cu2287     Cu  0.97520579  0.20280404  0.41946191     1.04600
Cu2288     Cu  0.50649725  0.26386018  0.41880085     1.04300
C2289       C  0.93158529  0.23424886  0.41920428     0.93200
C2290       C  0.54976834  0.23198795  0.41821536     0.92400
C2291       C  0.99157743  0.23413681  0.45930395     0.84500
C2292       C  0.99123182  0.23390290  0.37962152     0.90800
O2293       O  0.73881549  0.47969694  0.38704167    -0.73000
O2294       O  0.73998352  0.48159846  0.44711836    -0.74000
O2295       O  0.69421101  0.48102110  0.41690951    -0.62600
O2296       O  0.78462673  0.48073155  0.41721232    -0.71000
O2297       O  0.82072120  0.03568746  0.41763424    -0.70500
O2298       O  0.72973230  0.03552889  0.41704650    -0.61800
O2299       O  0.77592180  0.03706858  0.44779699    -0.74300
O2300       O  0.77419154  0.03392156  0.38717934    -0.73100
Cu2301     Cu  0.73841569  0.47881893  0.41709788     1.04600
Cu2302     Cu  0.77620090  0.03758882  0.41739643     1.04300
C2303       C  0.75926794  0.00472143  0.37824596     0.93200
C2304       C  0.76188627  0.00879266  0.45790703     0.92400
C2305       C  0.70116783  0.00674494  0.41768034     0.84500
C2306       C  0.82075492  0.00697222  0.41798239     0.90800
O2307       O  0.72755568  0.20953514  0.38578867    -0.73000
O2308       O  0.72584680  0.20330395  0.44624673    -0.74000
O2309       O  0.68214305  0.20753960  0.41630220    -0.62600
O2310       O  0.77102440  0.20476035  0.41567815    -0.71000
O2311       O  0.80107931  0.26195743  0.41747285    -0.70500
O2312       O  0.71189703  0.26471625  0.41807215    -0.61800
O2313       O  0.75593357  0.26052764  0.44791184    -0.74300
O2314       O  0.75749052  0.26661774  0.38769763    -0.73100
Cu2315     Cu  0.72560153  0.20430194  0.41593254     1.04600
Cu2316     Cu  0.75762612  0.26544276  0.41784523     1.04300
C2317       C  0.74279149  0.23917162  0.37712750     0.93200
C2318       C  0.74055849  0.23101325  0.45665061     0.92400
C2319       C  0.68282335  0.23650337  0.41741166     0.84500
C2320       C  0.80014367  0.23283841  0.41641008     0.90800
O2321       O  0.52709453  0.47190387  0.08104497    -0.73000
O2322       O  0.53825102  0.06767004  0.08386726    -0.74000
O2323       O  0.53962868  0.02041000  0.11236816    -0.62600
O2324       O  0.53569347  0.02387177  0.05216003    -0.71000
O2325       O  0.96976351  0.49173916  0.05379025    -0.70500
O2326       O  0.97495932  0.49185133  0.11424915    -0.61800
O2327       O  0.98097927  0.04024275  0.08411034    -0.74300
O2328       O  0.97069139  0.44547157  0.08353748    -0.73100
Cu2329     Cu  0.53959867  0.02305877  0.08224935     1.04600
Cu2330     Cu  0.97041473  0.49078723  0.08408296     1.04300
C2331       C  0.99901850  0.44441476  0.08276670     0.93200
C2332       C  0.00997476  0.06869689  0.08406693     0.92400
C2333       C  0.01235839  0.00739216  0.12205286     0.84500
C2334       C  0.00664955  0.01041313  0.04235638     0.90800
O2335       O  0.53299482  0.22519568  0.08667673    -0.73000
O2336       O  0.53227180  0.31519924  0.08410291    -0.74000
O2337       O  0.53462789  0.27280933  0.11553226    -0.62600
O2338       O  0.53059427  0.26727616  0.05530396    -0.71000
O2339       O  0.97383648  0.23884205  0.05654566    -0.70500
O2340       O  0.97767311  0.24537358  0.11706299    -0.61800
O2341       O  0.97537523  0.28740233  0.08522049    -0.74300
O2342       O  0.97607615  0.19704339  0.08837247    -0.73100
Cu2343     Cu  0.53457120  0.27115797  0.08537255     1.04600
Cu2344     Cu  0.97371567  0.24122054  0.08684350     1.04300
C2345       C  0.00494361  0.19700923  0.08797884     0.93200
C2346       C  0.00418915  0.31603397  0.08464197     0.92400
C2347       C  0.00719587  0.26011361  0.12604690     0.84500
C2348       C  0.00208069  0.25184841  0.04649358     0.90800
O2349       O  0.71818167  0.48020768  0.05215549    -0.73000
O2350       O  0.71220855  0.47924546  0.11258179    -0.74000
O2351       O  0.70910942  0.02399642  0.08305757    -0.62600
O2352       O  0.71514962  0.43481047  0.08302804    -0.71000
O2353       O  0.77277765  0.46296893  0.08493378    -0.70500
O2354       O  0.76655947  0.05047767  0.08569772    -0.61800
O2355       O  0.76070781  0.00317598  0.11668957    -0.74300
O2356       O  0.76871326  0.00482372  0.05656701    -0.73100
Cu2357     Cu  0.71310336  0.47883412  0.08225676     1.04600
Cu2358     Cu  0.76659438  0.00510394  0.08669599     1.04300
C2359       C  0.74136624  0.99119713  0.04559064     0.93200
C2360       C  0.73080414  0.98984617  0.12497195     0.92400
C2361       C  0.73850437  0.05191951  0.08399179     0.84500
C2362       C  0.74384083  0.43453935  0.08386810     0.90800
O2363       O  0.76777013  0.21060559  0.08366051    -0.73000
O2364       O  0.77145024  0.30277475  0.08614520    -0.74000
O2365       O  0.76668527  0.25315135  0.11491846    -0.62600
O2366       O  0.77240612  0.26073477  0.05463050    -0.71000
O2367       O  0.71495646  0.23355381  0.05296374    -0.70500
O2368       O  0.70915643  0.22731300  0.11330651    -0.61800
O2369       O  0.71388638  0.27627689  0.08386718    -0.74300
O2370       O  0.71022293  0.18413675  0.08241172    -0.73100
Cu2371     Cu  0.77156772  0.25766838  0.08488940     1.04600
Cu2372     Cu  0.71006902  0.22933829  0.08304846     1.04300
C2373       C  0.73832231  0.18266192  0.08314290     0.93200
C2374       C  0.74327465  0.30408307  0.08532257     0.92400
C2375       C  0.73717373  0.23908850  0.12368032     0.84500
C2376       C  0.74451525  0.24889081  0.04417222     0.90800
O2377       O  0.52289435  0.07130291  0.91553519    -0.73000
O2378       O  0.92812570  0.48145712  0.91745065    -0.74000
O2379       O  0.97833692  0.02641116  0.94632437    -0.62600
O2380       O  0.97277908  0.02627107  0.88563089    -0.71000
O2381       O  0.49999793  0.49806883  0.88456504    -0.70500
O2382       O  0.50344688  0.49772608  0.94479732    -0.61800
O2383       O  0.95785070  0.45346238  0.91658865    -0.74300
O2384       O  0.55026305  0.04123506  0.91410306    -0.73100
Cu2385     Cu  0.97462982  0.02748514  0.91603993     1.04600
Cu2386     Cu  0.50283058  0.49711608  0.91465149     1.04300
C2387       C  0.55135581  0.07042864  0.91462637     0.93200
C2388       C  0.92886583  0.45310756  0.91746602     0.92400
C2389       C  0.49419116  0.01177009  0.95566706     0.84500
C2390       C  0.48680200  0.01148307  0.87613524     0.90800
O2391       O  0.52125992  0.22499353  0.95065022    -0.73000
O2392       O  0.52787015  0.22464226  0.89021116    -0.74000
O2393       O  0.56827532  0.27140871  0.92119328    -0.62600
O2394       O  0.98187530  0.17776967  0.92006649    -0.71000
O2395       O  0.95083706  0.20427997  0.91807472    -0.70500
O2396       O  0.53652690  0.29724681  0.91913650    -0.61800
O2397       O  0.99729342  0.24982349  0.88845655    -0.74300
O2398       O  0.99190039  0.25137142  0.94875409    -0.73100
Cu2399     Cu  0.52536386  0.22379300  0.92051059     1.04600
Cu2400     Cu  0.99331877  0.25141169  0.91850179     1.04300
C2401       C  0.00721880  0.23895303  0.95952691     0.93200
C2402       C  0.01391138  0.23682994  0.87988906     0.92400
C2403       C  0.56614718  0.29906080  0.92035239     0.84500
C2404       C  0.95229283  0.17633107  0.91885249     0.90800
O2405       O  0.76901212  0.47754921  0.88674129    -0.73000
O2406       O  0.76484179  0.47785668  0.94724588    -0.74000
O2407       O  0.72218141  0.43244035  0.91639008    -0.62600
O2408       O  0.81841182  0.01937412  0.92111336    -0.71000
O2409       O  0.78991763  0.04817220  0.91712866    -0.70500
O2410       O  0.69201987  0.45997777  0.91512609    -0.61800
O2411       O  0.74092991  0.00516403  0.94674450    -0.74300
O2412       O  0.74679854  0.00114182  0.88679081    -0.73100
Cu2413     Cu  0.76797200  0.47670349  0.91703562     1.04600
Cu2414     Cu  0.74309393  0.00414782  0.91668595     1.04300
C2415       C  0.76286867  0.98705705  0.87884144     0.93200
C2416       C  0.75271835  0.99028847  0.95825672     0.92400
C2417       C  0.69300114  0.43173083  0.91559300     0.84500
C2418       C  0.81864338  0.04811505  0.91931501     0.90800
O2419       O  0.72616277  0.27650748  0.94780813    -0.73000
O2420       O  0.72363313  0.27780068  0.88704887    -0.74000
O2421       O  0.68009357  0.23193160  0.91736692    -0.62600
O2422       O  0.76949863  0.32270625  0.91723198    -0.71000
O2423       O  0.79961897  0.29509962  0.91686876    -0.70500
O2424       O  0.70961032  0.20390839  0.91638490    -0.61800
O2425       O  0.75374683  0.25023013  0.88662224    -0.74300
O2426       O  0.75564153  0.24838505  0.94690488    -0.73100
Cu2427     Cu  0.72386242  0.27825005  0.91744625     1.04600
Cu2428     Cu  0.75572733  0.24849351  0.91670391     1.04300
C2429       C  0.74109278  0.26201586  0.95699102     0.93200
C2430       C  0.73779314  0.26341762  0.87726042     0.92400
C2431       C  0.68046331  0.20349833  0.91630827     0.84500
C2432       C  0.79864845  0.32334735  0.91685088     0.90800
O2433       O  0.51595588  0.03241130  0.61322327    -0.73000
O2434       O  0.52081161  0.03526903  0.55297474    -0.74000
O2435       O  0.97469618  0.03462295  0.58163783    -0.62600
O2436       O  0.56419360  0.03449030  0.58446029    -0.71000
O2437       O  0.53600610  0.48127301  0.58192547    -0.70500
O2438       O  0.94761743  0.48519273  0.58160061    -0.61800
O2439       O  0.99392885  0.48643930  0.55218611    -0.74300
O2440       O  0.99037607  0.48268318  0.61231378    -0.73100
Cu2441     Cu  0.51939361  0.03573649  0.58312305     1.04600
Cu2442     Cu  0.99138541  0.48260899  0.58222458     1.04300
C2443       C  0.50183701  0.00337762  0.62249973     0.93200
C2444       C  0.50678644  0.00697346  0.54311592     0.92400
C2445       C  0.94609287  0.00585254  0.58165724     0.84500
C2446       C  0.56485997  0.00607323  0.58427766     0.90800
O2447       O  0.93983691  0.22082881  0.58737959    -0.73000
O2448       O  0.52854070  0.21744638  0.58579513    -0.74000
O2449       O  0.98826212  0.22426533  0.61698756    -0.62600
O2450       O  0.98280261  0.21814739  0.55679369    -0.71000
O2451       O  0.51088838  0.27357811  0.55451151    -0.70500
O2452       O  0.51586520  0.27784033  0.61522808    -0.61800
O2453       O  0.55802774  0.27475099  0.58401656    -0.74300
O2454       O  0.96756174  0.27806067  0.58588456    -0.73100
Cu2455     Cu  0.98435664  0.21937822  0.58696727     1.04600
Cu2456     Cu  0.51433699  0.27780762  0.58477430     1.04300
C2457       C  0.93917173  0.24920009  0.58674864     0.93200
C2458       C  0.55740214  0.24577125  0.58444218     0.92400
C2459       C  0.00386855  0.25344518  0.62597683     0.84500
C2460       C  0.99565320  0.24582016  0.54624489     0.90800
O2461       O  0.79028196  0.48647764  0.58222881    -0.73000
O2462       O  0.70000304  0.48704338  0.58427481    -0.74000
O2463       O  0.74321346  0.48649101  0.55308399    -0.62600
O2464       O  0.74700735  0.48635653  0.61332978    -0.71000
O2465       O  0.77577753  0.03892153  0.61626726    -0.70500
O2466       O  0.77355331  0.04265207  0.55561060    -0.61800
O2467       O  0.72947394  0.04163070  0.58700867    -0.74300
O2468       O  0.81923706  0.03998917  0.58458652    -0.73100
Cu2469     Cu  0.74408779  0.48458142  0.58323583     1.04600
Cu2470     Cu  0.77546366  0.04280800  0.58594865     1.04300
C2471       C  0.81855825  0.01101575  0.58378433     0.93200
C2472       C  0.70045369  0.01339109  0.58642397     0.92400
C2473       C  0.75934354  0.01456594  0.54555429     0.84500
C2474       C  0.76121520  0.00959285  0.62524700     0.90800
O2475       O  0.72913567  0.20637564  0.55437376    -0.73000
O2476       O  0.72913988  0.21335023  0.61516302    -0.74000
O2477       O  0.68361802  0.20888393  0.58374620    -0.62600
O2478       O  0.77497889  0.21037017  0.58589593    -0.71000
O2479       O  0.80283678  0.26753689  0.58353651    -0.70500
O2480       O  0.71184973  0.26610786  0.58120409    -0.61800
O2481       O  0.75721107  0.27021832  0.61228067    -0.74300
O2482       O  0.75742475  0.26361635  0.55240457    -0.73100
Cu2483     Cu  0.72826220  0.20766548  0.58486009     1.04600
Cu2484     Cu  0.75828338  0.26875144  0.58226731     1.04300
C2485       C  0.74372311  0.23418644  0.54383838     0.93200
C2486       C  0.74254996  0.24326210  0.62335110     0.92400
C2487       C  0.68336844  0.23738835  0.58256603     0.84500
C2488       C  0.80341363  0.23917666  0.58483514     0.90800
O2489       O  0.50281911  0.49335282  0.71855323    -0.73000
O2490       O  0.50203703  0.49467131  0.77878942    -0.74000
O2491       O  0.95524006  0.44886816  0.74967593    -0.62600
O2492       O  0.54839752  0.03579936  0.74996658    -0.71000
O2493       O  0.52061972  0.06555719  0.74851576    -0.70500
O2494       O  0.92612352  0.47749901  0.74856458    -0.61800
O2495       O  0.97386656  0.02220775  0.77810866    -0.74300
O2496       O  0.97683357  0.01950013  0.71774501    -0.73100
Cu2497     Cu  0.50330763  0.49293917  0.74874399     1.04600
Cu2498     Cu  0.97431892  0.02188196  0.74779776     1.04300
C2499       C  0.98775395  0.50850061  0.70924692     0.93200
C2500       C  0.98841782  0.00861480  0.78853418     0.92400
C2501       C  0.92639266  0.44889726  0.74938748     0.84500
C2502       C  0.54918438  0.06485873  0.74914972     0.90800
O2503       O  0.55024746  0.30459059  0.75220674    -0.73000
O2504       O  0.95999379  0.21499565  0.75482256    -0.74000
O2505       O  0.00844984  0.25855573  0.78424536    -0.62600
O2506       O  0.00203076  0.26197205  0.72400740    -0.71000
O2507       O  0.53017078  0.23130755  0.72126019    -0.70500
O2508       O  0.53879488  0.23108403  0.78194289    -0.61800
O2509       O  0.98901757  0.18637185  0.75330912    -0.74300
O2510       O  0.57946199  0.27650074  0.74988743    -0.73100
Cu2511     Cu  0.00426322  0.26121482  0.75422217     1.04600
Cu2512     Cu  0.53555410  0.23019931  0.75146567     1.04300
C2513       C  0.57924507  0.30506207  0.75029491     0.93200
C2514       C  0.96018497  0.18636120  0.75458304     0.92400
C2515       C  0.02418047  0.24424608  0.79273130     0.84500
C2516       C  0.01474583  0.24737043  0.71320982     0.90800
O2517       O  0.79852778  0.05701209  0.75405282    -0.73000
O2518       O  0.70357678  0.46966078  0.74763836    -0.74000
O2519       O  0.75212128  0.00778045  0.78279985    -0.62600
O2520       O  0.75443690  0.01499651  0.72242464    -0.71000
O2521       O  0.78051565  0.49096203  0.71877255    -0.70500
O2522       O  0.77556021  0.48437947  0.77951907    -0.61800
O2523       O  0.73379930  0.44241464  0.74723557    -0.74300
O2524       O  0.82840637  0.02924317  0.75296468    -0.73100
Cu2525     Cu  0.75253676  0.01257182  0.75264955     1.04600
Cu2526     Cu  0.77920451  0.48651850  0.74910536     1.04300
C2527       C  0.82769367  0.05761187  0.75369780     0.93200
C2528       C  0.70443077  0.44138660  0.74692551     0.92400
C2529       C  0.76607865  0.99220377  0.79178788     0.84500
C2530       C  0.76942698  0.00203033  0.71212346     0.90800
O2531       O  0.75091773  0.24691579  0.78182249    -0.73000
O2532       O  0.75312274  0.24032636  0.72164159    -0.74000
O2533       O  0.79728219  0.28998258  0.75113654    -0.62600
O2534       O  0.70722598  0.19821277  0.75238271    -0.71000
O2535       O  0.67792376  0.22630580  0.74933503    -0.70500
O2536       O  0.76715631  0.31736168  0.74784538    -0.61800
O2537       O  0.72353060  0.26828512  0.71847943    -0.74300
O2538       O  0.72143360  0.27494953  0.77890751    -0.73100
Cu2539     Cu  0.75326841  0.24297500  0.75185564     1.04600
Cu2540     Cu  0.72153013  0.27270417  0.74855229     1.04300
C2541       C  0.73577697  0.26184611  0.78993613     0.93200
C2542       C  0.73803907  0.25256024  0.71056014     0.92400
C2543       C  0.79635022  0.31816135  0.74918131     0.84500
C2544       C  0.67815638  0.19783865  0.75104020     0.90800
C2545       C  0.89945749  0.15034661  0.74264703    -0.05800
C2546       C  0.92651857  0.15317458  0.75509456     0.00100
C2547       C  0.92041169  0.12502538  0.76786739    -0.08500
C2548       C  0.88789842  0.09424547  0.76680546    -0.05800
C2549       C  0.86095774  0.09126984  0.75413879     0.00100
C2550       C  0.86666022  0.11999100  0.74197515    -0.08400
C2551       C  0.83864681  0.11861608  0.72800170     0.62000
H2552       H  0.90434368  0.17232140  0.73329532     0.12700
H2553       H  0.88300730  0.07229479  0.77618587     0.12700
C2554       C  0.94726235  0.12801923  0.78330942     0.62300
F2555       F  0.85120597  0.14762668  0.71575741    -0.22900
F2556       F  0.81165523  0.11693381  0.73921433    -0.20200
F2557       F  0.82609231  0.08990313  0.71571388    -0.19900
F2558       F  0.95729097  0.15707029  0.79502027    -0.20000
F2559       F  0.97608981  0.13058863  0.77376053    -0.20300
F2560       F  0.93416547  0.09953206  0.79600697    -0.23000
C2561       C  0.60910918  0.36842477  0.74360327    -0.05800
C2562       C  0.61224818  0.33914542  0.74829161     0.00100
C2563       C  0.64624501  0.34359744  0.75077445    -0.08500
C2564       C  0.67505077  0.37737953  0.75023942    -0.05800
C2565       C  0.67178761  0.40681947  0.74637138     0.00100
C2566       C  0.63814011  0.40200781  0.74207618    -0.08400
C2567       C  0.63240596  0.43160140  0.73544912     0.62000
H2568       H  0.58335071  0.36483626  0.74098573     0.12700
H2569       H  0.70077023  0.38097242  0.75297373     0.12700
C2570       C  0.65285222  0.31338759  0.75389089     0.62300
F2571       F  0.59839124  0.41999358  0.72934069    -0.22900
F2572       F  0.65375504  0.44889789  0.71932064    -0.20200
F2573       F  0.63955225  0.45428097  0.75121462    -0.19900
F2574       F  0.64076175  0.29171248  0.73739847    -0.20000
F2575       F  0.63627915  0.29520157  0.77108723    -0.20300
F2576       F  0.68795030  0.32417176  0.75602487    -0.23000
C2577       C  0.86866997  0.40873726  0.73447625    -0.05800
C2578       C  0.89310646  0.41551518  0.74984840     0.00100
C2579       C  0.88541011  0.39047540  0.76521018    -0.08500
C2580       C  0.85366663  0.35893240  0.76432167    -0.05800
C2581       C  0.82929798  0.35199075  0.74886514     0.00100
C2582       C  0.83687485  0.37723004  0.73361136    -0.08400
C2583       C  0.81223347  0.37034538  0.71602027     0.62000
H2584       H  0.87499524  0.42823723  0.72292432     0.12700
H2585       H  0.84738548  0.33947551  0.77589378     0.12700
C2586       C  0.91003164  0.39756286  0.78286373     0.62300
F2587       F  0.82663593  0.39615413  0.70155191    -0.22900
F2588       F  0.78184366  0.36855044  0.72265913    -0.20200
F2589       F  0.80455544  0.33942865  0.70703544    -0.19900
F2590       F  0.91773936  0.42856116  0.79179861    -0.20000
F2591       F  0.94046485  0.39937315  0.77630641    -0.20300
F2592       F  0.89559577  0.37182157  0.79736505    -0.23000
C2593       C  0.58270710  0.12732788  0.75734115    -0.05800
C2594       C  0.58299617  0.09821589  0.74950846     0.00100
C2595       C  0.61485664  0.10215223  0.74209746    -0.08500
C2596       C  0.64515632  0.13495834  0.74325506    -0.05800
C2597       C  0.64474419  0.16411555  0.75094711     0.00100
C2598       C  0.61278622  0.16022720  0.75813732    -0.08400
C2599       C  0.61003282  0.19023097  0.76695292     0.62000
H2600       H  0.55834896  0.12410399  0.76292269     0.12700
H2601       H  0.66958814  0.13821553  0.73777538     0.12700
C2602       C  0.61707532  0.07248107  0.73238459     0.62300
F2603       F  0.57768839  0.17945242  0.77536304    -0.22900
F2604       F  0.61494632  0.21397301  0.75199035    -0.20200
F2605       F  0.63478475  0.20609310  0.78192685    -0.19900
F2606       F  0.59233372  0.05799410  0.71727246    -0.20000
F2607       F  0.61160864  0.04757166  0.74667778    -0.20300
F2608       F  0.64936455  0.08337991  0.72385240    -0.23000
C2609       C  0.72999593  0.21659141  0.65762591    -0.05800
C2610       C  0.74081378  0.24653547  0.64572282     0.00100
C2611       C  0.74841134  0.27806227  0.65548747    -0.08500
C2612       C  0.74667126  0.27846646  0.67662213    -0.05800
C2613       C  0.73776261  0.24905011  0.68836526     0.00100
C2614       C  0.72792505  0.21718416  0.67875743    -0.08400
C2615       C  0.71383999  0.18365468  0.69066712     0.62000
H2616       H  0.72330365  0.19244169  0.65027625     0.12700
H2617       H  0.75270148  0.30215744  0.68429688     0.12700
C2618       C  0.75788449  0.31134092  0.64405816     0.62300
F2619       F  0.69980960  0.15498799  0.67824712    -0.22900
F2620       F  0.68777507  0.18033517  0.70341636    -0.20200
F2621       F  0.74029091  0.18363010  0.70185429    -0.19900
F2622       F  0.73216394  0.30540676  0.63009282    -0.20000
F2623       F  0.78950417  0.32328418  0.63450614    -0.20300
F2624       F  0.76107031  0.33740694  0.65665500    -0.23000
C2625       C  0.73886604  0.00230416  0.68075579    -0.05800
C2626       C  0.76851636  0.00371085  0.68970201     0.00100
C2627       C  0.79568884  0.51367259  0.67524897    -0.08500
C2628       C  0.79342933  0.51596315  0.65417277    -0.05800
C2629       C  0.76304761  0.00799747  0.64739319     0.00100
C2630       C  0.73560357  0.00423938  0.65977241    -0.08400
C2631       C  0.70323749  0.00268115  0.65073839     0.62000
H2632       H  0.71793146  0.99936339  0.69038268     0.12700
H2633       H  0.81447146  0.51876436  0.64467707     0.12700
C2634       C  0.82888362  0.51746468  0.68455058     0.62300
F2635       F  0.68099610  0.50826656  0.66127054    -0.22900
F2636       F  0.68855646  0.48347872  0.63400712    -0.20200
F2637       F  0.71245446  0.03285339  0.64013275    -0.19900
F2638       F  0.82234427  0.48646953  0.69319136    -0.20000
F2639       F  0.84364259  0.03583230  0.69991929    -0.20300
F2640       F  0.85398122  0.01755551  0.67089429    -0.23000
C2641       C  0.86532808  0.26880712  0.59493220    -0.05800
C2642       C  0.83753227  0.24037306  0.58535136     0.00100
C2643       C  0.84348967  0.21522063  0.57599990    -0.08500
C2644       C  0.87721927  0.21960213  0.57674455    -0.05800
C2645       C  0.90498650  0.24792844  0.58642977     0.00100
C2646       C  0.89901347  0.27306890  0.59578278    -0.08400
C2647       C  0.92748007  0.30378156  0.60709471     0.62000
H2648       H  0.86032915  0.28778143  0.60194580     0.12700
H2649       H  0.88224001  0.20072528  0.56962338     0.12700
C2650       C  0.81489453  0.18420929  0.56492750     0.62300
F2651       F  0.91458497  0.32208901  0.61722029    -0.22900
F2652       F  0.95238601  0.32628538  0.59374078    -0.20200
F2653       F  0.94281549  0.29242421  0.62116705    -0.19900
F2654       F  0.79925400  0.19510673  0.55079111    -0.20000
F2655       F  0.79022583  0.16199869  0.57848527    -0.20300
F2656       F  0.82768866  0.16570183  0.55492493    -0.23000
C2657       C  0.59325652  0.22114226  0.59652517    -0.05800
C2658       C  0.59010350  0.24453990  0.58362455     0.00100
C2659       C  0.61721019  0.26474491  0.56992568    -0.08500
C2660       C  0.64687880  0.26092745  0.56986238    -0.05800
C2661       C  0.65015376  0.23770565  0.58285785     0.00100
C2662       C  0.62302503  0.21749120  0.59656320    -0.08400
C2663       C  0.62575280  0.19308383  0.61164823     0.62000
H2664       H  0.57215007  0.20589216  0.60681322     0.12700
H2665       H  0.66801020  0.27624279  0.55960527     0.12700
C2666       C  0.61468663  0.28958203  0.55509621     0.62300
F2667       F  0.59847285  0.17968952  0.62519682    -0.22900
F2668       F  0.65641506  0.21056113  0.62252762    -0.20200
F2669       F  0.62508299  0.16562471  0.60166376    -0.19900
F2670       F  0.61552462  0.31689962  0.56534081    -0.20000
F2671       F  0.58401573  0.27248686  0.54418589    -0.20300
F2672       F  0.64201778  0.30317257  0.54158469    -0.23000
C2673       C  0.99160262  0.22148134  0.65847125    -0.05800
C2674       C  0.00734910  0.25386867  0.64853380     0.00100
C2675       C  0.50400892  0.27500969  0.66033189    -0.08500
C2676       C  0.50730691  0.27252119  0.68134114    -0.05800
C2677       C  0.01226864  0.24856848  0.69100625     0.00100
C2678       C  0.99416481  0.21826565  0.67938577    -0.08400
C2679       C  0.97712650  0.18260432  0.68909341     0.62000
H2680       H  0.97738559  0.19816848  0.64968749     0.12700
H2681       H  0.50714995  0.29187937  0.69102868     0.12700
C2682       C  0.49851021  0.30375397  0.65182571     0.62300
F2683       F  0.95827232  0.15659677  0.67534702    -0.22900
F2684       F  0.95458822  0.18060836  0.70401000    -0.20200
F2685       F  0.00241411  0.17661847  0.69740186    -0.19900
F2686       F  0.46941355  0.28984650  0.63946947    -0.20000
F2687       F  0.52739413  0.32677635  0.64092780    -0.20300
F2688       F  0.49340636  0.32214141  0.66684915    -0.23000
C2689       C  0.85909918  0.49890349  0.59669310    -0.05800
C2690       C  0.85135041  0.01014193  0.58268372     0.00100
C2691       C  0.87639280  0.02777126  0.56748077    -0.08500
C2692       C  0.90697522  0.02545534  0.56756064    -0.05800
C2693       C  0.91279294  0.00590310  0.58213453     0.00100
C2694       C  0.89068033  0.49869946  0.59781710    -0.08400
C2695       C  0.89911301  0.48400920  0.61635167     0.62000
H2696       H  0.83998733  0.48700337  0.60853319     0.12700
H2697       H  0.92666425  0.03888873  0.55618970     0.12700
C2698       C  0.87044160  0.04811276  0.55098575     0.62300
F2699       F  0.87332531  0.47322071  0.63076472    -0.22900
F2700       F  0.92983714  0.50926032  0.62484411    -0.20200
F2701       F  0.90270311  0.45591860  0.61121675    -0.19900
F2702       F  0.87085654  0.07681483  0.55910499    -0.20000
F2703       F  0.83861011  0.02746762  0.54175848    -0.20300
F2704       F  0.89591912  0.05944838  0.53635172    -0.23000
C2705       C  0.62950147  0.03933396  0.58405232    -0.05800
C2706       C  0.59903952  0.00677977  0.58513808     0.00100
C2707       C  0.60190121  0.47935828  0.58479953    -0.08500
C2708       C  0.63538703  0.48306366  0.58537430    -0.05800
C2709       C  0.66644915  0.01314111  0.58641309     0.00100
C2710       C  0.66311825  0.04328110  0.58455257    -0.08400
C2711       C  0.69434597  0.07962202  0.58285803     0.62000
H2712       H  0.62684385  0.06213308  0.58260262     0.12700
H2713       H  0.63780039  0.46005255  0.58567234     0.12700
C2714       C  0.57054892  0.44291663  0.58476108     0.62300
F2715       F  0.68458271  0.10462741  0.58075135    -0.22900
F2716       F  0.71379059  0.08187000  0.56615817    -0.20200
F2717       F  0.71469609  0.08737131  0.60001941    -0.19900
F2718       F  0.55187171  0.43741314  0.56707651    -0.20000
F2719       F  0.54951938  0.43850960  0.60107350    -0.20300
F2720       F  0.58011494  0.41767794  0.58609262    -0.23000
C2721       C  0.50320484  0.98328001  0.67824891    -0.05800
C2722       C  0.99027560  0.50939317  0.68684243     0.00100
C2723       C  0.98877583  0.53492645  0.67449010    -0.08500
C2724       C  0.99381578  0.53444722  0.65363617    -0.05800
C2725       C  0.49897281  0.00287809  0.64469833     0.00100
C2726       C  0.50699013  0.98202036  0.65730994    -0.08400
C2727       C  0.52090216  0.95965870  0.64881854     0.62000
H2728       H  0.50894360  0.96706897  0.68792301     0.12700
H2729       H  0.99263755  0.55356786  0.64400038     0.12700
C2730       C  0.98233054  0.56291670  0.68294437     0.62300
F2731       F  0.53181754  0.94544112  0.66383766    -0.22900
F2732       F  0.54913382  0.97951115  0.63655445    -0.20200
F2733       F  0.47232011  0.42900344  0.63588718    -0.19900
F2734       F  0.00630554  0.07622946  0.69579564    -0.20000
F2735       F  0.94931774  0.54795249  0.69111656    -0.20300
F2736       F  0.98442124  0.58613892  0.66827525    -0.23000
C2737       C  0.73962136  0.29113967  0.84437520    -0.05800
C2738       C  0.73571335  0.26197776  0.85494013     0.00100
C2739       C  0.72938831  0.23206767  0.84405279    -0.08500
C2740       C  0.72935625  0.23331113  0.82290463    -0.05800
C2741       C  0.73440807  0.26283377  0.81227547     0.00100
C2742       C  0.73910734  0.29219823  0.82316380    -0.08400
C2743       C  0.74460200  0.32488582  0.81258257     0.62000
H2744       H  0.74361063  0.31342816  0.85293655     0.12700
H2745       H  0.72529289  0.21092449  0.81440576     0.12700
C2746       C  0.72156481  0.19849210  0.85455913     0.62300
F2747       F  0.75239799  0.35141589  0.82601164    -0.22900
F2748       F  0.71461599  0.31823686  0.80231913    -0.20200
F2749       F  0.77195308  0.33621425  0.79919889    -0.19900
F2750       F  0.69593383  0.18986500  0.86884995    -0.20000
F2751       F  0.75137085  0.20218252  0.86372941    -0.20300
F2752       F  0.70977833  0.17119101  0.84120420    -0.23000
C2753       C  0.79539113  0.99940064  0.82474062    -0.05800
C2754       C  0.76426162  0.98872993  0.81401895     0.00100
C2755       C  0.72612191  0.48669860  0.82191120    -0.08500
C2756       C  0.72651666  0.48550761  0.84308859    -0.05800
C2757       C  0.76447225  0.98612259  0.85658634     0.00100
C2758       C  0.79614498  0.99851038  0.84593826    -0.08400
C2759       C  0.83073235  0.01225964  0.85686334     0.62000
H2760       H  0.81936248  0.00931961  0.81631945     0.12700
H2761       H  0.70328223  0.47975397  0.85141096     0.12700
C2762       C  0.69264902  0.47900180  0.81106303     0.62300
F2763       F  0.85854398  0.02593885  0.84368915    -0.22900
F2764       F  0.83137550  0.98581219  0.86752716    -0.20200
F2765       F  0.83523666  0.03816128  0.86996374    -0.19900
F2766       F  0.68494862  0.45449395  0.79627644    -0.20000
F2767       F  0.69634262  0.50899933  0.80242742    -0.20300
F2768       F  0.66458807  0.46618587  0.82404504    -0.23000
C2769       C  0.88124482  0.08208898  0.90982764    -0.05800
C2770       C  0.85258879  0.08129870  0.91942684     0.00100
C2771       C  0.85726747  0.11172548  0.92902418    -0.08500
C2772       C  0.89042754  0.14159816  0.92870318    -0.05800
C2773       C  0.91898318  0.14257291  0.91894572     0.00100
C2774       C  0.91425015  0.11237331  0.90902554    -0.08400
C2775       C  0.94322328  0.11227006  0.89694095     0.62000
H2776       H  0.87739386  0.05872841  0.90258957     0.12700
H2777       H  0.89430395  0.16484168  0.93610918     0.12700
C2778       C  0.82776221  0.11285143  0.93991058     0.62300
F2779       F  0.93151443  0.08184975  0.88626488    -0.22900
F2780       F  0.96958282  0.11569821  0.90968429    -0.20200
F2781       F  0.95642874  0.13933596  0.88324788    -0.19900
F2782       F  0.81264936  0.08589244  0.95361992    -0.20000
F2783       F  0.80299655  0.11023900  0.92613859    -0.20300
F2784       F  0.83926268  0.14346854  0.95034688    -0.23000
C2785       C  0.62437426  0.33758639  0.90628668    -0.05800
C2786       C  0.59821656  0.33337410  0.91969034     0.00100
C2787       C  0.60270197  0.36202375  0.93123844    -0.08500
C2788       C  0.63368481  0.39392571  0.92900039    -0.05800
C2789       C  0.66019059  0.39792534  0.91590956     0.00100
C2790       C  0.65511152  0.36957992  0.90388202    -0.08400
C2791       C  0.68101648  0.37343263  0.88779046     0.62000
H2792       H  0.62015233  0.31559546  0.89732324     0.12700
H2793       H  0.63761472  0.41603603  0.93767381     0.12700
C2794       C  0.57560030  0.35884335  0.94633246     0.62300
F2795       F  0.66805188  0.34452517  0.87559757    -0.22900
F2796       F  0.71137571  0.37797371  0.89661189    -0.20200
F2797       F  0.68841383  0.40166413  0.87566929    -0.19900
F2798       F  0.56738585  0.33131461  0.95922357    -0.20000
F2799       F  0.54584956  0.35364174  0.93637060    -0.20300
F2800       F  0.58749716  0.38839731  0.95787883    -0.23000
C2801       C  0.54747581  0.24630108  0.84837331    -0.05800
C2802       C  0.01578453  0.23681532  0.85755114     0.00100
C2803       C  0.98673600  0.22952991  0.84514122    -0.08500
C2804       C  0.99103988  0.23212490  0.82416952    -0.05800
C2805       C  0.02289847  0.24085894  0.81506223     0.00100
C2806       C  0.55186695  0.24832717  0.82725902    -0.08400
C2807       C  0.58740296  0.25909397  0.81846540     0.62000
H2808       H  0.56930671  0.25188116  0.85817162     0.12700
H2809       H  0.96918170  0.22727177  0.81457903     0.12700
C2810       C  0.95094389  0.21818884  0.85381080     0.62300
F2811       F  0.61249716  0.26753000  0.83328349    -0.22900
F2812       F  0.59775676  0.28781157  0.80624391    -0.20200
F2813       F  0.58590235  0.23229957  0.80731515    -0.19900
F2814       F  0.95085691  0.24590643  0.86298880    -0.20000
F2815       F  0.94227248  0.19189330  0.86770807    -0.20300
F2816       F  0.92536888  0.20582003  0.83906627    -0.23000
C2817       C  0.86924203  0.41561721  0.90463854    -0.05800
C2818       C  0.89578868  0.41971946  0.91792479     0.00100
C2819       C  0.89011984  0.39227124  0.93115526    -0.08500
C2820       C  0.85800615  0.36119996  0.93023717    -0.05800
C2821       C  0.83157634  0.35696777  0.91677208     0.00100
C2822       C  0.83729321  0.38448738  0.90356584    -0.08400
C2823       C  0.81063984  0.38060434  0.88772634     0.62000
H2824       H  0.87401873  0.43697694  0.89478581     0.12700
H2825       H  0.85311436  0.33990816  0.94020923     0.12700
C2826       C  0.91721914  0.39611036  0.94666975     0.62300
F2827       F  0.82346653  0.40886245  0.87485991    -0.22900
F2828       F  0.78125274  0.37750519  0.89683790    -0.20200
F2829       F  0.80163086  0.35152511  0.87626213    -0.19900
F2830       F  0.92723256  0.42558355  0.95797545    -0.20000
F2831       F  0.94600402  0.39848236  0.93716451    -0.20300
F2832       F  0.90448491  0.36812754  0.95973059    -0.23000
C2833       C  0.58550037  0.13345404  0.90694383    -0.05800
C2834       C  0.58547688  0.10363767  0.91417220     0.00100
C2835       C  0.61749912  0.10672828  0.92102074    -0.08500
C2836       C  0.64741645  0.13983223  0.92167528    -0.05800
C2837       C  0.64715264  0.16974592  0.91502681     0.00100
C2838       C  0.61585247  0.16627135  0.90667868    -0.08400
C2839       C  0.61434449  0.19646095  0.89678195     0.62000
H2840       H  0.56131592  0.13081390  0.90123241     0.12700
H2841       H  0.67159279  0.14260734  0.92747870     0.12700
C2842       C  0.62062555  0.07563073  0.92772960     0.62300
F2843       F  0.58321130  0.18580246  0.88664433    -0.22900
F2844       F  0.64091057  0.21243338  0.88289672    -0.20200
F2845       F  0.61750504  0.22009783  0.91119348    -0.19900
F2846       F  0.61357108  0.05351416  0.91165779    -0.20000
F2847       F  0.59759419  0.05840861  0.94319853    -0.20300
F2848       F  0.65376804  0.08506013  0.93462670    -0.23000
C2849       C  0.51764199  0.02274131  0.84383837    -0.05800
C2850       C  0.48607465  0.01195288  0.85385895     0.00100
C2851       C  0.95568179  0.50917313  0.84215444    -0.08500
C2852       C  0.95764507  0.50843582  0.82101998    -0.05800
C2853       C  0.98854560  0.01047407  0.81077509     0.00100
C2854       C  0.51945744  0.02269215  0.82273203    -0.08400
C2855       C  0.55458859  0.03615593  0.81264062     0.62000
H2856       H  0.54106068  0.03125228  0.85277586     0.12700
H2857       H  0.93606252  0.50566476  0.81185935     0.12700
C2858       C  0.92272630  0.50497425  0.85169772     0.62300
F2859       F  0.58182965  0.05179459  0.82626578    -0.22900
F2860       F  0.55915584  0.06049841  0.79813220    -0.20200
F2861       F  0.55636902  0.00909634  0.80376592    -0.19900
F2862       F  0.92975517  0.53523716  0.86126982    -0.20000
F2863       F  0.91000370  0.47804107  0.86544470    -0.20300
F2864       F  0.89685378  0.49756000  0.83755428    -0.23000
C2865       C  0.77147635  0.26211551  0.98855064    -0.05800
C2866       C  0.74206579  0.26083414  0.97941376     0.00100
C2867       C  0.71424807  0.25682928  0.99174459    -0.08500
C2868       C  0.71654483  0.25307753  0.01265337    -0.05800
C2869       C  0.74567856  0.25379030  0.02183934     0.00100
C2870       C  0.77417367  0.25919238  0.00955367    -0.08400
C2871       C  0.80720503  0.26153499  0.01822526     0.62000
H2872       H  0.79271526  0.26574701  0.97897121     0.12700
H2873       H  0.69536633  0.24989691  0.02212357     0.12700
C2874       C  0.68182013  0.25574437  0.98306545     0.62300
F2875       F  0.83012369  0.26414990  0.00333926    -0.22900
F2876       F  0.79900760  0.23223460  0.02950107    -0.20200
F2877       F  0.82427428  0.29061768  0.03018119    -0.19900
F2878       F  0.66710283  0.23034218  0.96851906    -0.20000
F2879       F  0.69048623  0.28754845  0.97470053    -0.20300
F2880       F  0.65684887  0.24844724  0.99761348    -0.23000
C2881       C  0.72466300  0.34348262  0.07072460    -0.05800
C2882       C  0.74443892  0.33794439  0.08534530     0.00100
C2883       C  0.76405515  0.36425985  0.09954545    -0.08500
C2884       C  0.76347159  0.39560921  0.09836923    -0.05800
C2885       C  0.74351748  0.40105764  0.08380013     0.00100
C2886       C  0.72396446  0.37471655  0.06956830    -0.08400
C2887       C  0.70336666  0.37982581  0.05279064     0.62000
H2888       H  0.70988544  0.32304805  0.06001985     0.12700
H2889       H  0.77822974  0.41603591  0.10907841     0.12700
C2890       C  0.78435745  0.35881799  0.11633713     0.62300
F2891       F  0.69030545  0.35286928  0.03913680    -0.22900
F2892       F  0.72461468  0.41009274  0.04240668    -0.20200
F2893       F  0.67549991  0.38155500  0.06074184    -0.19900
F2894       F  0.81201413  0.35668750  0.10839999    -0.20000
F2895       F  0.76279032  0.32857729  0.12667294    -0.20300
F2896       F  0.79760291  0.38575543  0.13000021    -0.23000
C2897       C  0.76352004  0.14608983  0.07313624    -0.05800
C2898       C  0.73714804  0.14858112  0.08334722     0.00100
C2899       C  0.71147497  0.11917168  0.09394384    -0.08500
C2900       C  0.71312479  0.08835495  0.09368400    -0.05800
C2901       C  0.73952431  0.08589823  0.08351362     0.00100
C2902       C  0.76508996  0.11520868  0.07285564    -0.08400
C2903       C  0.79322539  0.11377977  0.06062626     0.62000
H2904       H  0.78293391  0.16869640  0.06514869     0.12700
H2905       H  0.69367853  0.06570859  0.10162363     0.12700
C2906       C  0.68289341  0.12020923  0.10595964     0.62300
F2907       F  0.81213716  0.14350435  0.04925602    -0.22900
F2908       F  0.77823041  0.08600531  0.04756964    -0.20200
F2909       F  0.81621957  0.11032966  0.07332926    -0.19900
F2910       F  0.66002086  0.12346918  0.09305014    -0.20000
F2911       F  0.69729970  0.14784127  0.11911941    -0.20300
F2912       F  0.66392258  0.09035798  0.11721989    -0.23000
C2913       C  0.72043476  0.49005672  0.01024632    -0.05800
C2914       C  0.74444551  0.99020161  0.02337454     0.00100
C2915       C  0.76787890  0.98162783  0.01402274    -0.08500
C2916       C  0.76970278  0.98220081  0.99285581    -0.05800
C2917       C  0.74855097  0.99030801  0.98064684     0.00100
C2918       C  0.71889149  0.48883818  0.98910640    -0.08400
C2919       C  0.68569524  0.48271374  0.97859780     0.62000
H2920       H  0.69866972  0.48835133  0.01853442     0.12700
H2921       H  0.78816482  0.97652427  0.98567462     0.12700
C2922       C  0.79014830  0.97078115  0.02620627     0.62300
F2923       F  0.65896543  0.47459829  0.99206668    -0.22900
F2924       F  0.67462777  0.45534613  0.96542023    -0.20200
F2925       F  0.69163422  0.51213805  0.96819029    -0.19900
F2926       F  0.76963226  0.94516406  0.03983520    -0.20000
F2927       F  0.81582486  0.99895192  0.03641995    -0.20300
F2928       F  0.80625030  0.95775163  0.01410910    -0.23000
C2929       C  0.52882695  0.24604976  0.01527544    -0.05800
C2930       C  0.00162599  0.24753697  0.02422720     0.00100
C2931       C  0.97473081  0.24513119  0.01136264    -0.08500
C2932       C  0.97764217  0.24196262  0.99046803    -0.05800
C2933       C  0.00599574  0.24061563  0.98195433     0.00100
C2934       C  0.53138278  0.24262979  0.99442371    -0.08400
C2935       C  0.56320101  0.24205285  0.98639240     0.62000
H2936       H  0.54901188  0.24736271  0.02516098     0.12700
H2937       H  0.95734174  0.24020539  0.98051748     0.12700
C2938       C  0.94334806  0.24649874  0.01938320     0.62300
F2939       F  0.58758648  0.24828701  0.00133800    -0.22900
F2940       F  0.57924290  0.26735463  0.97180060    -0.20200
F2941       F  0.55331078  0.20990007  0.97833935    -0.19900
F2942       F  0.95424369  0.27570616  0.03108027    -0.20000
F2943       F  0.92300127  0.21722584  0.03077450    -0.20300
F2944       F  0.92266346  0.24778249  0.00404052    -0.23000
C2945       C  0.97552620  0.34995824  0.07472849    -0.05800
C2946       C  0.00391518  0.34948866  0.08413279     0.00100
C2947       C  0.52966059  0.37993920  0.09248200    -0.08500
C2948       C  0.52643848  0.40983968  0.09147879    -0.05800
C2949       C  0.99886079  0.41080807  0.08301409     0.00100
C2950       C  0.97258437  0.38010892  0.07381154    -0.08400
C2951       C  0.94211744  0.37916291  0.06251729     0.62000
H2952       H  0.95559434  0.32634011  0.06785566     0.12700
H2953       H  0.54620311  0.43352361  0.09837556     0.12700
C2954       C  0.56081141  0.38177665  0.10349605     0.62300
F2955       F  0.92234249  0.34811004  0.05257143    -0.22900
F2956       F  0.95428186  0.40541984  0.04830368    -0.20200
F2957       F  0.92055367  0.38316497  0.07584656    -0.19900
F2958       F  0.58200303  0.37751210  0.09000570    -0.20000
F2959       F  0.54955534  0.35625268  0.11812876    -0.20300
F2960       F  0.58083751  0.41334629  0.11289497    -0.23000
C2961       C  0.53169213  0.16245104  0.07670159    -0.05800
C2962       C  0.00562595  0.16379523  0.08776643     0.00100
C2963       C  0.98140955  0.13353428  0.09831282    -0.08500
C2964       C  0.98391635  0.10324661  0.09663089    -0.05800
C2965       C  0.01010356  0.10227697  0.08525584     0.00100
C2966       C  0.53471764  0.13244352  0.07551230    -0.08400
C2967       C  0.56393979  0.13345405  0.06310762     0.62000
H2968       H  0.55017745  0.18568659  0.06881689     0.12700
H2969       H  0.96537585  0.07990102  0.10441055     0.12700
C2970       C  0.95367415  0.13321840  0.11180422     0.62300
F2971       F  0.58218870  0.16424240  0.05256024    -0.22900
F2972       F  0.55043686  0.10679591  0.04927713    -0.20200
F2973       F  0.58727563  0.13024823  0.07565504    -0.19900
F2974       F  0.92890358  0.13574636  0.10025088    -0.20000
F2975       F  0.96877983  0.16066610  0.12508066    -0.20300
F2976       F  0.93680437  0.10304223  0.12304249    -0.23000
C2977       C  0.01543931  0.50267194  0.98756337    -0.05800
C2978       C  0.49663968  0.01171667  0.97791262     0.00100
C2979       C  0.46725286  0.00013343  0.99048491    -0.08500
C2980       C  0.47192685  0.00035346  0.01146791    -0.05800
C2981       C  0.50481473  0.01134507  0.02037565     0.00100
C2982       C  0.01803353  0.49980684  0.00853484    -0.08400
C2983       C  0.04343667  0.48920594  0.01697610     0.62000
H2984       H  0.03299330  0.49912924  0.97790354     0.12700
H2985       H  0.44951666  0.99186260  0.02110327     0.12700
C2986       C  0.43089320  0.98640904  0.98179252     0.62300
F2987       F  0.05743980  0.47842217  0.00200808    -0.22900
F2988       F  0.02649697  0.46199707  0.03038768    -0.20200
F2989       F  0.56946782  0.51712859  0.02540520    -0.19900
F2990       F  0.92301662  0.96151043  0.96766471    -0.20000
F2991       F  0.42839062  0.01296660  0.97247992    -0.20300
F2992       F  0.40553566  0.97234534  0.99649964    -0.23000
C2993       C  0.77164707  0.25274123  0.48892150    -0.05800
C2994       C  0.74074554  0.22946010  0.47897313     0.00100
C2995       C  0.71105319  0.20679100  0.49046447    -0.08500
C2996       C  0.71348248  0.20856027  0.51163356    -0.05800
C2997       C  0.74416956  0.23248179  0.52154837     0.00100
C2998       C  0.77407114  0.25462073  0.51002938    -0.08400
C2999       C  0.80872919  0.27964303  0.51981498     0.62000
H3000       H  0.79408715  0.26973758  0.47991167     0.12700
H3001       H  0.69099859  0.19180479  0.52067265     0.12700
C3002       C  0.67653455  0.18193499  0.48054101     0.62300
F3003       F  0.83542671  0.29420777  0.50591070    -0.22900
F3004       F  0.81753368  0.26241123  0.53403435    -0.20200
F3005       F  0.80650747  0.30628978  0.52892191    -0.19900
F3006       F  0.67963666  0.15680010  0.47017520    -0.20000
F3007       F  0.66677722  0.19984507  0.46735263    -0.20300
F3008       F  0.65017100  0.16538953  0.49448998    -0.23000
C3009       C  0.76373702  0.49180752  0.51147113    -0.05800
C3010       C  0.76076376  0.01483788  0.52305693     0.00100
C3011       C  0.76543552  0.04307901  0.51070812    -0.08500
C3012       C  0.76549570  0.03972664  0.48962285    -0.05800
C3013       C  0.76182317  0.00974403  0.48038462     0.00100
C3014       C  0.76376672  0.48949291  0.49038442    -0.08400
C3015       C  0.77441392  0.46524776  0.48078350     0.62000
H3016       H  0.77070631  0.47595453  0.52067093     0.12700
H3017       H  0.76831751  0.06077086  0.48008178     0.12700
C3018       C  0.76991710  0.07652938  0.51942645     0.62300
F3019       F  0.78626745  0.45044973  0.49491927    -0.22900
F3020       F  0.80095368  0.48335034  0.46716078    -0.20200
F3021       F  0.74621538  0.43870156  0.47099912    -0.19900
F3022       F  0.80075392  0.09317846  0.53020589    -0.20000
F3023       F  0.74221420  0.06937361  0.53185229    -0.20300
F3024       F  0.77115933  0.09915471  0.50461151    -0.23000
C3025       C  0.00329138  0.22026807  0.51499281    -0.05800
C3026       C  0.99423612  0.24320913  0.52397901     0.00100
C3027       C  0.48431355  0.26138702  0.51122512    -0.08500
C3028       C  0.48397308  0.25780460  0.49022259    -0.05800
C3029       C  0.99195139  0.23542620  0.48162986     0.00100
C3030       C  0.00241025  0.21602707  0.49394367    -0.08400
C3031       C  0.01398310  0.19213272  0.48492765     0.62000
H3032       H  0.01143418  0.20586973  0.52465863     0.12700
H3033       H  0.47646666  0.27280150  0.48075165     0.12700
C3034       C  0.47199460  0.28465780  0.52028693     0.62300
F3035       F  0.02708314  0.17908443  0.49941266    -0.22900
F3036       F  0.03989442  0.21002956  0.47091600    -0.20200
F3037       F  0.98602962  0.16446892  0.47568682    -0.19900
F3038       F  0.49972754  0.31296445  0.52921731    -0.20000
F3039       F  0.44663886  0.26644613  0.53452852    -0.20300
F3040       F  0.45781877  0.29676632  0.50589167    -0.23000
C3041       C  0.87117485  0.20984961  0.40675764    -0.05800
C3042       C  0.89824746  0.23451345  0.41877241     0.00100
C3043       C  0.89256082  0.25790172  0.43030774    -0.08500
C3044       C  0.86020554  0.25645809  0.42883119    -0.05800
C3045       C  0.83318552  0.23199537  0.41673093     0.00100
C3046       C  0.83855262  0.20804743  0.40548531    -0.08400
C3047       C  0.81053652  0.18117590  0.39187941     0.62000
H3048       H  0.87587093  0.19190739  0.39827451     0.12700
H3049       H  0.85552336  0.27425402  0.43748887     0.12700
C3050       C  0.91962838  0.28298925  0.44497814     0.62300
F3051       F  0.82305740  0.16389413  0.38041599    -0.22900
F3052       F  0.79819697  0.19703738  0.37883088    -0.20200
F3053       F  0.78341005  0.15679295  0.40338510    -0.19900
F3054       F  0.94775607  0.30849721  0.43462303    -0.20000
F3055       F  0.93054334  0.26518638  0.45739648    -0.20300
F3056       F  0.90647903  0.29898781  0.45705432    -0.23000
C3057       C  0.61124300  0.25806245  0.42853764    -0.05800
C3058       C  0.58320521  0.23193810  0.41777555     0.00100
C3059       C  0.58830471  0.20793009  0.40644538    -0.08500
C3060       C  0.62135236  0.21065517  0.40680044    -0.05800
C3061       C  0.64942451  0.23676456  0.41761571     0.00100
C3062       C  0.64442802  0.26114473  0.42863348    -0.08400
C3063       C  0.67348952  0.29000951  0.44073687     0.62000
H3064       H  0.60686154  0.27624847  0.43698242     0.12700
H3065       H  0.62564549  0.19239621  0.39836963     0.12700
C3066       C  0.55968175  0.18032500  0.39344445     0.62300
F3067       F  0.66160262  0.30806954  0.45199338    -0.15700
F3068       F  0.69881372  0.31334814  0.42786967    -0.20200
F3069       F  0.68798940  0.27637231  0.45388912    -0.19900
F3070       F  0.54607679  0.19540922  0.38070212    -0.20000
F3071       F  0.53353439  0.15595001  0.40548528    -0.20300
F3072       F  0.57194275  0.16317593  0.38164859    -0.23000
C3073       C  0.97971554  0.49957152  0.48839295    -0.05800
C3074       C  0.51390523  0.01305145  0.47851155     0.00100
C3075       C  0.54300359  0.03507963  0.49063539    -0.08500
C3076       C  0.53946686  0.03212600  0.51169621    -0.05800
C3077       C  0.50805432  0.00812768  0.52086817     0.00100
C3078       C  0.97777148  0.49714114  0.50944877    -0.08400
C3079       C  0.94268648  0.47436922  0.51932040     0.62000
H3080       H  0.95651992  0.48453534  0.47938660     0.12700
H3081       H  0.56142933  0.04850047  0.52125155     0.12700
C3082       C  0.57780202  0.06101044  0.48152577     0.62300
F3083       F  0.91564181  0.46176241  0.50547281    -0.22900
F3084       F  0.93637341  0.49322805  0.53343463    -0.20200
F3085       F  0.94243216  0.44632638  0.52856981    -0.19900
F3086       F  0.57475055  0.08694422  0.47178144    -0.20000
F3087       F  0.58829571  0.04460649  0.46796193    -0.20300
F3088       F  0.60360860  0.07635305  0.49602020    -0.23000
C3089       C  0.89228203  0.98507329  0.40725283    -0.05800
C3090       C  0.92061898  0.01162740  0.41759262     0.00100
C3091       C  0.90798691  0.53929674  0.42839874    -0.08500
C3092       C  0.87481762  0.53631609  0.42761390    -0.05800
C3093       C  0.85441820  0.00714302  0.41769315     0.00100
C3094       C  0.85927558  0.98245497  0.40688194    -0.08400
C3095       C  0.83031912  0.95415990  0.39441477     0.62000
H3096       H  0.89639266  0.96625637  0.39909943     0.12700
H3097       H  0.87021282  0.55474233  0.43555118     0.12700
C3098       C  0.93632884  0.56745463  0.44124754     0.62300
F3099       F  0.83585855  0.43734081  0.38376915    -0.22900
F3100       F  0.80953186  0.46900395  0.38082147    -0.20200
F3101       F  0.80468410  0.93033375  0.40693807    -0.19900
F3102       F  0.92368110  0.58472934  0.45260590    -0.20000
F3103       F  0.97030513  0.08874549  0.42721936    -0.20300
F3104       F  0.95993262  0.05195547  0.45325931    -0.23000
C3105       C  0.66211581  0.02507254  0.40193879    -0.05800
C3106       C  0.66772891  0.00663670  0.41734103     0.00100
C3107       C  0.63293616  0.48897849  0.42912765    -0.08500
C3108       C  0.60267880  0.49176685  0.42821140    -0.05800
C3109       C  0.60540090  0.00942247  0.41568012     0.00100
C3110       C  0.63115565  0.02666338  0.40075071    -0.08400
C3111       C  0.62566411  0.04589400  0.38339519     0.62000
H3112       H  0.68225672  0.03816365  0.39075817     0.12700
H3113       H  0.58105057  0.47604619  0.43807778     0.12700
C3114       C  0.63505695  0.46421588  0.44419139     0.62300
F3115       F  0.65166390  0.05644992  0.36912854    -0.22900
F3116       F  0.62568508  0.07500960  0.39049987    -0.20200
F3117       F  0.59418202  0.02459268  0.37397974    -0.19900
F3118       F  0.66484247  0.48161314  0.45582756    -0.20000
F3119       F  0.63569156  0.43747946  0.43411334    -0.20300
F3120       F  0.60675285  0.44978353  0.45701237    -0.23000
C3121       C  0.75668704  0.23190011  0.17889182    -0.05800
C3122       C  0.73157638  0.23716111  0.18853000     0.00100
C3123       C  0.70688978  0.24112264  0.17670107    -0.08500
C3124       C  0.70950836  0.24127130  0.15556558    -0.05800
C3125       C  0.73536000  0.23701360  0.14598858     0.00100
C3126       C  0.75856546  0.23087987  0.15784991    -0.08400
C3127       C  0.78472161  0.22238340  0.14856391     0.62000
H3128       H  0.77512630  0.22856465  0.18806876     0.12700
H3129       H  0.69155129  0.24523991  0.14628638     0.12700
C3130       C  0.67851792  0.24609442  0.18616091     0.62300
F3131       F  0.79892159  0.20998602  0.16277268    -0.22900
F3132       F  0.81164435  0.25180027  0.13996959    -0.20200
F3133       F  0.76860537  0.19709958  0.13405145    -0.19900
F3134       F  0.69312506  0.27353961  0.19944944    -0.20000
F3135       F  0.65534109  0.21627818  0.19629082    -0.20300
F3136       F  0.65983573  0.25307346  0.17188953    -0.23000
C3137       C  0.74581379  0.26855781  0.32245693    -0.05800
C3138       C  0.74295089  0.23992941  0.31224588     0.00100
C3139       C  0.74096539  0.21166168  0.32310145    -0.08500
C3140       C  0.74131689  0.21273317  0.34422221    -0.05800
C3141       C  0.74373620  0.24121125  0.35473363     0.00100
C3142       C  0.74623677  0.26989853  0.34361451    -0.08400
C3143       C  0.74836962  0.30145350  0.35369232     0.62000
H3144       H  0.74739456  0.28981891  0.31359402     0.12700
H3145       H  0.73977227  0.19115185  0.35270383     0.12700
C3146       C  0.73844949  0.18059304  0.31228458     0.62300
F3147       F  0.77949930  0.31930355  0.36408126    -0.22900
F3148       F  0.72078116  0.29124924  0.36678465    -0.20200
F3149       F  0.74691687  0.32414193  0.33986033    -0.19900
F3150       F  0.76705426  0.19113086  0.29996340    -0.20000
F3151       F  0.70847951  0.16524452  0.30070586    -0.20300
F3152       F  0.73739899  0.15599314  0.32557653    -0.23000
C3153       C  0.76722243  0.39642965  0.25783168    -0.05800
C3154       C  0.73683264  0.39708448  0.25219957     0.00100
C3155       C  0.70616093  0.36505988  0.24785669    -0.08500
C3156       C  0.70823967  0.33445106  0.24771994    -0.05800
C3157       C  0.73895384  0.33403032  0.25272723     0.00100
C3158       C  0.76866430  0.36552272  0.25881590    -0.08400
C3159       C  0.80149516  0.36687636  0.26709690     0.62000
H3160       H  0.79014574  0.42059994  0.26177241     0.12700
H3161       H  0.68548950  0.31024891  0.24363192     0.12700
C3162       C  0.67111167  0.36247309  0.24346571     0.62300
F3163       F  0.82432956  0.39888271  0.27524593    -0.22900
F3164       F  0.81879106  0.36061349  0.25190632    -0.20200
F3165       F  0.79285295  0.34246050  0.28223006    -0.19900
F3166       F  0.67366418  0.38248834  0.22685216    -0.20000
F3167       F  0.66052558  0.37349157  0.26001980    -0.20300
F3168       F  0.64534336  0.32885386  0.23945929    -0.23000
C3169       C  0.71153391  0.11948176  0.26148859    -0.05800
C3170       C  0.73684945  0.14682699  0.24992689     0.00100
C3171       C  0.76126758  0.14158616  0.23893845    -0.08500
C3172       C  0.75941358  0.10914130  0.24009632    -0.05800
C3173       C  0.73426734  0.08188300  0.25175128     0.00100
C3174       C  0.71005413  0.08719047  0.26291648    -0.08400
C3175       C  0.68355358  0.05963821  0.27688467     0.62000
H3176       H  0.69300235  0.12378078  0.26969769     0.12700
H3177       H  0.77770345  0.10470211  0.23170526     0.12700
C3178       C  0.78856824  0.16948399  0.22549804     0.62300
F3179       F  0.66664603  0.07236006  0.28855559    -0.22900
F3180       F  0.70007201  0.04775010  0.28977511    -0.20200
F3181       F  0.65857971  0.03236443  0.26575688    -0.19900
F3182       F  0.81315374  0.19622066  0.23711392    -0.20000
F3183       F  0.77282093  0.18199292  0.21249428    -0.20300
F3184       F  0.80586360  0.15701414  0.21397830    -0.23000
C3185       C  0.76004087  0.48152734  0.15562993    -0.05800
C3186       C  0.72866545  0.98814523  0.14723000     0.00100
C3187       C  0.70996903  0.00051675  0.15845564    -0.08500
C3188       C  0.71051287  0.99872901  0.17964654    -0.05800
C3189       C  0.74039767  0.49036281  0.18800007     0.00100
C3190       C  0.76103662  0.48025978  0.17677967    -0.08400
C3191       C  0.78309586  0.46700975  0.18695587     0.62000
H3192       H  0.77599938  0.47439714  0.14681935     0.12700
H3193       H  0.69662522  0.00821602  0.18854924     0.12700
C3194       C  0.69136409  0.01740598  0.14819542     0.62300
F3195       F  0.79612617  0.45310682  0.17324030    -0.22900
F3196       F  0.76316575  0.44131142  0.20069342    -0.20200
F3197       F  0.79866596  0.98570079  0.19800789    -0.19900
F3198       F  0.66742110  0.48463294  0.13599249    -0.20000
F3199       F  0.71448603  0.04424137  0.13601500    -0.20300
F3200       F  0.67799853  0.03089757  0.16196346    -0.23000
C3201       C  0.72513960  0.47529280  0.34576732    -0.05800
C3202       C  0.75607364  0.00263309  0.35591953     0.00100
C3203       C  0.78072032  0.02802108  0.34267893    -0.08500
C3204       C  0.77460066  0.02344235  0.32180940    -0.05800
C3205       C  0.74538743  0.49727443  0.31213203     0.00100
C3206       C  0.72168301  0.47026470  0.32484590    -0.08400
C3207       C  0.69356305  0.43577821  0.31656988     0.62000
H3208       H  0.70665478  0.45507610  0.35556053     0.12700
H3209       H  0.79290638  0.04286653  0.31155842     0.12700
C3210       C  0.81365449  0.05952035  0.35026362     0.62300
F3211       F  0.67716508  0.41152559  0.33167761    -0.22900
F3212       F  0.70813523  0.42255972  0.30345394    -0.20200
F3213       F  0.66566426  0.94484840  0.31066462    -0.19900
F3214       F  0.82557495  0.55754980  0.36341710    -0.20000
F3215       F  0.80514933  0.08163279  0.36002018    -0.20300
F3216       F  0.83606894  0.07789993  0.33472073    -0.23000
C3217       C  0.52922996  0.25464381  0.18063428    -0.05800
C3218       C  0.00605615  0.26214298  0.19092239     0.00100
C3219       C  0.98315957  0.26924921  0.17939258    -0.08500
C3220       C  0.98470935  0.26863084  0.15825187    -0.05800
C3221       C  0.00858283  0.26178275  0.14836503     0.00100
C3222       C  0.53094253  0.25418947  0.15953341    -0.08400
C3223       C  0.55641392  0.24519439  0.14981084     0.62000
H3224       H  0.54636901  0.24914737  0.18970771     0.12700
H3225       H  0.96712321  0.27351519  0.14919685     0.12700
C3226       C  0.95780789  0.27831790  0.18921205     0.62300
F3227       F  0.57303490  0.23526631  0.16389341    -0.22900
F3228       F  0.58171105  0.27367704  0.13959901    -0.20200
F3229       F  0.53890631  0.21804168  0.13655360    -0.19900
F3230       F  0.97513865  0.30430207  0.20320322    -0.20000
F3231       F  0.93154815  0.24942702  0.19862493    -0.20300
F3232       F  0.94248355  0.28995416  0.17527513    -0.23000
C3233       C  0.46912360  0.21955505  0.32299720    -0.05800
C3234       C  0.00168642  0.24568035  0.31503617     0.00100
C3235       C  0.02988992  0.26671184  0.32813782    -0.08500
C3236       C  0.02522052  0.26090985  0.34900347    -0.05800
C3237       C  0.99362207  0.23555878  0.35733171     0.00100
C3238       C  0.46449925  0.21427677  0.34391921    -0.08400
C3239       C  0.42915986  0.18765503  0.35209599     0.62000
H3240       H  0.44769546  0.20358984  0.31303349     0.12700
H3241       H  0.04648063  0.27649247  0.35917716     0.12700
C3242       C  0.06454681  0.29586438  0.32055025     0.62300
F3243       F  0.40438782  0.17300304  0.33698971    -0.22900
F3244       F  0.41761379  0.20323954  0.36557308    -0.20200
F3245       F  0.43166904  0.16129372  0.36166948    -0.19900
F3246       F  0.05904322  0.31836723  0.30865633    -0.20000
F3247       F  0.08142445  0.28234714  0.30958197    -0.20300
F3248       F  0.08648937  0.31493060  0.33615459    -0.23000
C3249       C  0.97518462  0.34918600  0.25959419    -0.05800
C3250       C  0.00666074  0.34969775  0.25553866     0.00100
C3251       C  0.53520873  0.38107873  0.24972580    -0.08500
C3252       C  0.53207758  0.41103542  0.24913263    -0.05800
C3253       C  0.00219178  0.41154649  0.25439615     0.00100
C3254       C  0.97223125  0.37933546  0.25917720    -0.08400
C3255       C  0.93719981  0.37620776  0.26398028     0.62000
H3256       H  0.95243571  0.32458343  0.26303343     0.12700
H3257       H  0.55467259  0.43547841  0.24527088     0.12700
C3258       C  0.57035287  0.38453014  0.24474340     0.62300
F3259       F  0.91267136  0.34287960  0.26961496    -0.22900
F3260       F  0.92437140  0.38481002  0.24719486    -0.20200
F3261       F  0.94087299  0.39790450  0.27974495    -0.19900
F3262       F  0.56685668  0.36362503  0.22858367    -0.20000
F3263       F  0.58312056  0.37525756  0.26128569    -0.20300
F3264       F  0.59494015  0.41810360  0.23957415    -0.23000
C3265       C  0.97946083  0.10046733  0.25724098    -0.05800
C3266       C  0.00804286  0.10045159  0.24812344     0.00100
C3267       C  0.53296201  0.13048118  0.23860569    -0.08500
C3268       C  0.52990049  0.16048656  0.23956502    -0.05800
C3269       C  0.00273823  0.16158103  0.24941987     0.00100
C3270       C  0.97624676  0.13038668  0.25813829    -0.08400
C3271       C  0.94510213  0.12851357  0.26886151     0.62000
H3272       H  0.95959127  0.07664993  0.26398690     0.12700
H3273       H  0.54993251  0.18436460  0.23294927     0.12700
C3274       C  0.56364016  0.13210685  0.22746854     0.62300
F3275       F  0.92478782  0.09672906  0.27807020    -0.22900
F3276       F  0.92424496  0.13342748  0.25516192    -0.20200
F3277       F  0.95635511  0.15362924  0.28360533    -0.19900
F3278       F  0.55190977  0.10541224  0.21370521    -0.20000
F3279       F  0.58613060  0.12954580  0.24102527    -0.20300
F3280       F  0.58229306  0.16289910  0.21697312    -0.23000
C3281       C  0.97710785  0.47882094  0.15575622    -0.05800
C3282       C  0.01341508  0.00671368  0.14448095     0.00100
C3283       C  0.54137990  0.03040104  0.15671614    -0.08500
C3284       C  0.53842605  0.02878635  0.17779622    -0.05800
C3285       C  0.00887041  0.00464080  0.18713344     0.00100
C3286       C  0.97526404  0.47667482  0.17689697    -0.08400
C3287       C  0.94328206  0.44699045  0.18669561     0.62000
H3288       H  0.95570381  0.45955768  0.14689200     0.12700
H3289       H  0.55982879  0.04766698  0.18681631     0.12700
C3290       C  0.57495111  0.05844907  0.14732126     0.62300
F3291       F  0.92145808  0.42288539  0.17273563    -0.22900
F3292       F  0.92433307  0.45961350  0.19636370    -0.20200
F3293       F  0.45200646  0.42879152  0.19910800    -0.19900
F3294       F  0.06829429  0.07905570  0.13339824    -0.20000
F3295       F  0.59126801  0.04341285  0.13722646    -0.20300
F3296       F  0.59816738  0.08051740  0.16159692    -0.23000
C3297       C  0.98993404  0.48048555  0.32236314    -0.05800
C3298       C  0.51018444  0.01110747  0.31172872     0.00100
C3299       C  0.53271530  0.04111235  0.32285624    -0.08500
C3300       C  0.53189260  0.03911322  0.34397622    -0.05800
C3301       C  0.50894249  0.00855348  0.35436121     0.00100
C3302       C  0.98784622  0.47885342  0.34347854    -0.08400
C3303       C  0.96827432  0.44333973  0.35341096     0.62000
H3304       H  0.97797430  0.45694454  0.31357048     0.12700
H3305       H  0.54968413  0.06168667  0.35256155     0.12700
C3306       C  0.55664749  0.07549566  0.31262644     0.62300
F3307       F  0.95399678  0.41685788  0.33944879    -0.22900
F3308       F  0.93971919  0.94831400  0.36532411    -0.20200
F3309       F  0.99076860  0.43785677  0.36543219    -0.19900
F3310       F  0.53781682  0.08346570  0.29901179    -0.20000
F3311       F  0.57011058  0.57986442  0.30073147    -0.20300
F3312       F  0.57195778  0.10235021  0.32630505    -0.23000
O3313       O  0.98005230  0.99249216  0.21920725    -0.73000
O3314       O  0.98111440  0.99447706  0.27958850    -0.74000
O3315       O  0.98109751  0.54055840  0.24887861    -0.62600
O3316       O  0.98093222  0.94853181  0.24998943    -0.71000
O3317       O  0.53885087  0.97728362  0.25088917    -0.70500
O3318       O  0.53669492  0.56499477  0.24685726    -0.61800
O3319       O  0.53431414  0.52204914  0.27906385    -0.74300
O3320       O  0.53198252  0.51529201  0.21866874    -0.73100
Cu3321     Cu  0.97854925  0.99251729  0.24938963     1.04600
Cu3322     Cu  0.53534246  0.51951233  0.24888642     1.04300
C3323       C  0.00444551  0.50285008  0.21071765     0.93200
C3324       C  0.50990889  0.01010432  0.28947403     0.92400
C3325       C  0.50904579  0.56717036  0.24664413     0.84500
C3326       C  0.51030190  0.94840165  0.25118013     0.90800
O3327       O  0.98500379  0.74498053  0.27785163    -0.73000
O3328       O  0.98609462  0.74839074  0.21774475    -0.74000
O3329       O  0.98451546  0.70149993  0.24697768    -0.62600
O3330       O  0.98671565  0.79237613  0.24838764    -0.71000
O3331       O  0.54472256  0.81958316  0.24831501    -0.70500
O3332       O  0.54154523  0.72735023  0.24671438    -0.61800
O3333       O  0.54281476  0.77471933  0.21709620    -0.74300
O3334       O  0.54312458  0.77146098  0.27790715    -0.73100
Cu3335     Cu  0.98367749  0.74594265  0.24772360     1.04600
Cu3336     Cu  0.54514098  0.77433425  0.24749523     1.04300
C3337       C  0.01351640  0.75759784  0.28780392     0.93200
C3338       C  0.01485329  0.76234514  0.20825050     0.92400
C3339       C  0.01255235  0.70000371  0.24732135     0.84500
C3340       C  0.01582848  0.82064085  0.24861960     0.90800
O3341       O  0.70370660  0.97393677  0.22234469    -0.73000
O3342       O  0.71139896  0.97733692  0.28295943    -0.74000
O3343       O  0.71490799  0.52546129  0.25015695    -0.62600
O3344       O  0.70796076  0.93062543  0.25279897    -0.71000
O3345       O  0.76523450  0.95927412  0.25068764    -0.70500
O3346       O  0.77258389  0.55243690  0.24914411    -0.61800
O3347       O  0.77218458  0.50783797  0.27996559    -0.74300
O3348       O  0.76982708  0.50460957  0.21976647    -0.73100
Cu3349     Cu  0.70534741  0.97443667  0.25279494     1.04600
Cu3350     Cu  0.77277078  0.50702223  0.24987726     1.04300
C3351       C  0.73169717  0.98766583  0.21198599     0.93200
C3352       C  0.74137411  0.99234482  0.29139716     0.92400
C3353       C  0.74417337  0.55341133  0.24988542     0.84500
C3354       C  0.73663335  0.93043662  0.25166340     0.90800
O3355       O  0.72099145  0.73005378  0.27913202    -0.73000
O3356       O  0.71274048  0.72808120  0.21886155    -0.74000
O3357       O  0.71723700  0.68410743  0.24875584    -0.62600
O3358       O  0.71655105  0.77427647  0.24966578    -0.71000
O3359       O  0.77380398  0.80304341  0.24738969    -0.70500
O3360       O  0.77476434  0.71313819  0.24627533    -0.61800
O3361       O  0.77020462  0.75693840  0.21654692    -0.74300
O3362       O  0.77832139  0.75862786  0.27705786    -0.73100
Cu3363     Cu  0.71490541  0.72819667  0.24915613     1.04600
Cu3364     Cu  0.77624823  0.75899560  0.24670826     1.04300
C3365       C  0.75082438  0.74417631  0.28776905     0.93200
C3366       C  0.74019872  0.74205418  0.20810129     0.92400
C3367       C  0.74622108  0.68445259  0.24740991     0.84500
C3368       C  0.74510865  0.80315151  0.24893004     0.90800
O3369       O  0.97589983  0.54446194  0.41646845    -0.73000
O3370       O  0.56593876  0.54335542  0.41386306    -0.74000
O3371       O  0.51753607  0.54019330  0.38454928    -0.62600
O3372       O  0.52324331  0.54535901  0.44488084    -0.71000
O3373       O  0.00075394  0.98444920  0.44674697    -0.70500
O3374       O  0.99802259  0.98110886  0.38666375    -0.61800
O3375       O  0.54346487  0.98171660  0.41704791    -0.74300
O3376       O  0.95417300  0.98298089  0.41697575    -0.73100
Cu3377     Cu  0.52130963  0.54478678  0.41464204     1.04600
Cu3378     Cu  0.99852266  0.98086645  0.41677671     1.04300
C3379       C  0.94736536  0.51573880  0.41748416     0.93200
C3380       C  0.56619646  0.51482194  0.41476530     0.92400
C3381       C  0.50323907  0.51077479  0.37580082     0.84500
C3382       C  0.50948462  0.51736801  0.45516407     0.90800
O3383       O  0.94133471  0.70806030  0.41443582    -0.73000
O3384       O  0.53338033  0.71064155  0.41350473    -0.74000
O3385       O  0.98726937  0.70675668  0.44414320    -0.62600
O3386       O  0.98779452  0.71238859  0.38359802    -0.71000
O3387       O  0.51425394  0.76770339  0.38487275    -0.70500
O3388       O  0.51264065  0.76319462  0.44508972    -0.61800
O3389       O  0.56014336  0.76792521  0.41504065    -0.74300
O3390       O  0.96885994  0.76533315  0.41620742    -0.73100
Cu3391     Cu  0.98650632  0.70749622  0.41376872     1.04600
Cu3392     Cu  0.51411180  0.76719736  0.41510019     1.04300
C3393       C  0.94055493  0.73628874  0.41578786     0.93200
C3394       C  0.56135392  0.73986117  0.41402146     0.92400
C3395       C  0.00071132  0.73453577  0.45450141     0.84500
C3396       C  0.00202345  0.74191333  0.37488301     0.90800
O3397       O  0.74564612  0.97670302  0.38853286    -0.73000
O3398       O  0.74743529  0.97991568  0.44868732    -0.74000
O3399       O  0.70130982  0.97815335  0.41841835    -0.62600
O3400       O  0.79204791  0.97841499  0.41872284    -0.71000
O3401       O  0.81331250  0.53802248  0.41653523    -0.70500
O3402       O  0.72287700  0.53836954  0.41588030    -0.61800
O3403       O  0.76830607  0.53895123  0.44658242    -0.74300
O3404       O  0.76747357  0.53688179  0.38596717    -0.73100
Cu3405     Cu  0.74569973  0.97636481  0.41864496     1.04600
Cu3406     Cu  0.76902044  0.54009793  0.41622081     1.04300
C3407       C  0.75301563  0.50782431  0.37687138     0.93200
C3408       C  0.75448796  0.51040395  0.45640442     0.92400
C3409       C  0.69421326  0.50970265  0.41642085     0.84500
C3410       C  0.81332808  0.50931414  0.41678953     0.90800
O3411       O  0.73391302  0.70827360  0.38488067    -0.73000
O3412       O  0.73524212  0.70663304  0.44521356    -0.74000
O3413       O  0.69030567  0.70992432  0.41553920    -0.62600
O3414       O  0.77891432  0.70530214  0.41449657    -0.71000
O3415       O  0.80956705  0.76261298  0.41537169    -0.70500
O3416       O  0.72113798  0.76725312  0.41596118    -0.61800
O3417       O  0.76548254  0.76379856  0.44582312    -0.74300
O3418       O  0.76504756  0.76549640  0.38510871    -0.73100
Cu3419     Cu  0.73353099  0.70557675  0.41501873     1.04600
Cu3420     Cu  0.76638765  0.76680429  0.41555312     1.04300
C3421       C  0.74921069  0.73701428  0.37538506     0.93200
C3422       C  0.75024030  0.73478208  0.45516617     0.92400
C3423       C  0.69176211  0.73932740  0.41606766     0.84500
C3424       C  0.80824835  0.73329397  0.41480214     0.90800
O3425       O  0.53696812  0.97649279  0.08078570    -0.73000
O3426       O  0.52965026  0.56312286  0.08147158    -0.74000
O3427       O  0.53062089  0.51778337  0.11149779    -0.62600
O3428       O  0.52569460  0.51715201  0.05116408    -0.71000
O3429       O  0.97856768  0.99574235  0.05263269    -0.70500
O3430       O  0.98288731  0.99390048  0.11304329    -0.61800
O3431       O  0.97439768  0.53795823  0.08449314    -0.74300
O3432       O  0.98050695  0.94946119  0.08188568    -0.73100
Cu3433     Cu  0.53021072  0.51839518  0.08126050     1.04600
Cu3434     Cu  0.97875109  0.99384528  0.08294045     1.04300
C3435       C  0.00896157  0.94877996  0.08069837     0.93200
C3436       C  0.00389670  0.56575639  0.08342580     0.92400
C3437       C  0.00453426  0.50551361  0.12316186     0.84500
C3438       C  0.99780159  0.50492638  0.04350984     0.90800
O3439       O  0.53339521  0.72302856  0.08031579    -0.73000
O3440       O  0.53849163  0.81591950  0.07889180    -0.74000
O3441       O  0.53965477  0.77168898  0.10973544    -0.62600
O3442       O  0.53233135  0.76656750  0.04955289    -0.71000
O3443       O  0.97677198  0.74139660  0.05260642    -0.70500
O3444       O  0.98512570  0.74779776  0.11263348    -0.61800
O3445       O  0.98331797  0.79114655  0.08172941    -0.74300
O3446       O  0.97869455  0.69873976  0.08374739    -0.73100
Cu3447     Cu  0.53795989  0.77028559  0.07953270     1.04600
Cu3448     Cu  0.97901439  0.74397216  0.08274529     1.04300
C3449       C  0.00670009  0.69718231  0.08290779     0.93200
C3450       C  0.01267055  0.81912422  0.08058935     0.92400
C3451       C  0.01501566  0.76122674  0.12112842     0.84500
C3452       C  0.00420522  0.75295005  0.04195311     0.90800
O3453       O  0.71128392  0.97850593  0.05365854    -0.73000
O3454       O  0.70317231  0.97708836  0.11419183    -0.74000
O3455       O  0.71469058  0.52479143  0.08141075    -0.62600
O3456       O  0.70516429  0.93164401  0.08467725    -0.71000
O3457       O  0.76256066  0.95798162  0.08731113    -0.70500
O3458       O  0.77213365  0.55359925  0.08355356    -0.61800
O3459       O  0.76983491  0.50732044  0.11448907    -0.74300
O3460       O  0.77563587  0.50898196  0.05412520    -0.73100
Cu3461     Cu  0.70516872  0.97693390  0.08382776     1.04600
Cu3462     Cu  0.77461452  0.50928583  0.08437255     1.04300
C3463       C  0.74788082  0.49433494  0.04351609     0.93200
C3464       C  0.74014948  0.49295462  0.12309459     0.92400
C3465       C  0.74327821  0.55358655  0.08201515     0.84500
C3466       C  0.73320616  0.93010257  0.08578906     0.90800
O3467       O  0.76337375  0.70917449  0.07916248    -0.73000
O3468       O  0.76427697  0.80004732  0.08185610    -0.74000
O3469       O  0.76525761  0.75295736  0.11058359    -0.62600
O3470       O  0.76223346  0.75647870  0.05012620    -0.71000
O3471       O  0.70461638  0.72868693  0.05068520    -0.70500
O3472       O  0.70765601  0.72507703  0.11138987    -0.61800
O3473       O  0.70667169  0.77218205  0.08249489    -0.74300
O3474       O  0.70589085  0.68109661  0.07979626    -0.73100
Cu3475     Cu  0.76572840  0.75557046  0.08035467     1.04600
Cu3476     Cu  0.70419213  0.72571459  0.08108223     1.04300
C3477       C  0.73452441  0.68057201  0.07950122     0.93200
C3478       C  0.73572407  0.80057893  0.08284079     0.92400
C3479       C  0.73697018  0.73852945  0.12059678     0.84500
C3480       C  0.73310502  0.74349603  0.04079913     0.90800
O3481       O  0.51660857  0.57145235  0.91505489    -0.73000
O3482       O  0.92979350  0.98194668  0.91700961    -0.74000
O3483       O  0.97529402  0.52654722  0.94705606    -0.62600
O3484       O  0.97072047  0.52678376  0.88635666    -0.71000
O3485       O  0.50163828  0.99671128  0.88507062    -0.70500
O3486       O  0.50745602  0.99709525  0.94538297    -0.61800
O3487       O  0.95748096  0.95215502  0.91566759    -0.74300
O3488       O  0.54631063  0.54373638  0.91402712    -0.73100
Cu3489     Cu  0.97203773  0.52779109  0.91674460     1.04600
Cu3490     Cu  0.50532011  0.99581491  0.91516387     1.04300
C3491       C  0.54587751  0.57218620  0.91436357     0.93200
C3492       C  0.92898350  0.95281337  0.91674378     0.92400
C3493       C  0.48848671  0.51082359  0.95499860     0.84500
C3494       C  0.48452142  0.51186304  0.87525201     0.90800
O3495       O  0.51900151  0.72561983  0.94491067    -0.73000
O3496       O  0.52368036  0.72760452  0.88462008    -0.74000
O3497       O  0.56659622  0.77194892  0.91581687    -0.62600
O3498       O  0.97580196  0.67971326  0.91539176    -0.71000
O3499       O  0.94647589  0.70786714  0.91394597    -0.70500
O3500       O  0.53719892  0.80026606  0.91501352    -0.61800
O3501       O  0.99398002  0.75432661  0.88481325    -0.74300
O3502       O  0.98922683  0.75263907  0.94500818    -0.73100
Cu3503     Cu  0.52229717  0.72558306  0.91482311     1.04600
Cu3504     Cu  0.99043761  0.75433325  0.91487531     1.04300
C3505       C  0.00389401  0.73889165  0.95518300     0.93200
C3506       C  0.00903005  0.74029052  0.87567461     0.92400
C3507       C  0.56617030  0.80048347  0.91594562     0.84500
C3508       C  0.94669454  0.67922821  0.91456283     0.90800
O3509       O  0.77676247  0.97356028  0.88994038    -0.73000
O3510       O  0.76824780  0.97533845  0.95052279    -0.74000
O3511       O  0.72726378  0.92931119  0.91911025    -0.62600
O3512       O  0.81193699  0.52285999  0.91751224    -0.71000
O3513       O  0.78263129  0.55100388  0.91532499    -0.70500
O3514       O  0.69836072  0.95800334  0.91651689    -0.61800
O3515       O  0.73566005  0.50627454  0.94541869    -0.74300
O3516       O  0.73858718  0.50476454  0.88499026    -0.73100
Cu3517     Cu  0.77370152  0.97340530  0.92032131     1.04600
Cu3518     Cu  0.73620087  0.50650949  0.91516022     1.04300
C3519       C  0.75469174  0.49132696  0.87629133     0.93200
C3520       C  0.74932528  0.49194295  0.95593285     0.92400
C3521       C  0.69847984  0.92933582  0.91743789     0.84500
C3522       C  0.81172236  0.55144857  0.91646433     0.90800
O3523       O  0.71809154  0.77781260  0.94502504    -0.73000
O3524       O  0.71822577  0.78416560  0.88404606    -0.74000
O3525       O  0.67293311  0.73621980  0.91356931    -0.62600
O3526       O  0.76392820  0.82641359  0.91574894    -0.71000
O3527       O  0.79282256  0.79786032  0.91432401    -0.70500
O3528       O  0.70202221  0.70791395  0.91188831    -0.61800
O3529       O  0.74741019  0.75572690  0.88298708    -0.74300
O3530       O  0.74677791  0.74911167  0.94316261    -0.73100
Cu3531     Cu  0.71739377  0.78228851  0.91463802     1.04600
Cu3532     Cu  0.74832732  0.75182311  0.91302078     1.04300
C3533       C  0.73174460  0.76167890  0.95375923     0.93200
C3534       C  0.73201763  0.76976299  0.87390660     0.92400
C3535       C  0.67295953  0.70759935  0.91248245     0.84500
C3536       C  0.79289497  0.82659313  0.91538680     0.90800
O3537       O  0.51720171  0.53689183  0.61239287    -0.73000
O3538       O  0.52215972  0.54092404  0.55199064    -0.74000
O3539       O  0.97670151  0.54267077  0.58195790    -0.62600
O3540       O  0.56483179  0.53825970  0.58343196    -0.71000
O3541       O  0.53632798  0.97747991  0.58328650    -0.70500
O3542       O  0.94610113  0.97718955  0.58140573    -0.61800
O3543       O  0.99283259  0.97898187  0.55174579    -0.74300
O3544       O  0.98988977  0.97550627  0.61205354    -0.73100
Cu3545     Cu  0.52087156  0.54090891  0.58223920     1.04600
Cu3546     Cu  0.99037300  0.97523226  0.58188459     1.04300
C3547       C  0.50198567  0.50759944  0.62142187     0.93200
C3548       C  0.50719077  0.51275454  0.54200403     0.92400
C3549       C  0.94800142  0.51403358  0.58183315     0.84500
C3550       C  0.56487624  0.50954466  0.58312047     0.90800
O3551       O  0.94527343  0.71058971  0.58344332    -0.73000
O3552       O  0.53835560  0.71625387  0.58087641    -0.74000
O3553       O  0.99454315  0.71333905  0.61239076    -0.62600
O3554       O  0.98819134  0.71030571  0.55192813    -0.71000
O3555       O  0.51674718  0.76971072  0.55042825    -0.70500
O3556       O  0.52231621  0.77326919  0.61080539    -0.61800
O3557       O  0.56551757  0.77333615  0.57980534    -0.74300
O3558       O  0.97290600  0.76791070  0.58230686    -0.73100
Cu3559     Cu  0.99023437  0.70988125  0.58218173     1.04600
Cu3560     Cu  0.52039005  0.77352976  0.58059932     1.04300
C3561       C  0.94465419  0.73899196  0.58339503     0.93200
C3562       C  0.56668114  0.74529451  0.58029103     0.92400
C3563       C  0.00953622  0.74241442  0.62153045     0.84500
C3564       C  0.00120413  0.73856061  0.54187330     0.90800
O3565       O  0.78969166  0.98255544  0.58421968    -0.73000
O3566       O  0.70031757  0.98461969  0.58568684    -0.74000
O3567       O  0.74467524  0.98550601  0.55485062    -0.62600
O3568       O  0.74558491  0.98150896  0.61524105    -0.71000
O3569       O  0.77678315  0.54384758  0.61335578    -0.70500
O3570       O  0.77079827  0.54385327  0.55285990    -0.61800
O3571       O  0.72880909  0.54409844  0.58476181    -0.74300
O3572       O  0.81878518  0.54394005  0.58133256    -0.73100
Cu3573     Cu  0.74397527  0.98158803  0.58499079     1.04600
Cu3574     Cu  0.77478168  0.54593026  0.58308255     1.04300
C3575       C  0.81876592  0.51528144  0.58127405     0.93200
C3576       C  0.69994504  0.51575262  0.58484725     0.92400
C3577       C  0.75623307  0.51511688  0.54342539     0.84500
C3578       C  0.76264019  0.51497385  0.62280285     0.90800
O3579       O  0.74021798  0.70902620  0.55256285    -0.73000
O3580       O  0.73780017  0.71021142  0.61347233    -0.74000
O3581       O  0.69494231  0.71081201  0.58180340    -0.62600
O3582       O  0.78325948  0.70750499  0.58400336    -0.71000
O3583       O  0.81346536  0.76482286  0.58305998    -0.70500
O3584       O  0.72429499  0.76794532  0.58204020    -0.61800
O3585       O  0.76882662  0.76750997  0.61256604    -0.74300
O3586       O  0.76923791  0.76622375  0.55241169    -0.73100
Cu3587     Cu  0.73805217  0.70737255  0.58298778     1.04600
Cu3588     Cu  0.77004620  0.76858456  0.58249509     1.04300
C3589       C  0.75508384  0.73770882  0.54283666     0.93200
C3590       C  0.75294231  0.73935986  0.62256370     0.92400
C3591       C  0.69523609  0.73955931  0.58192094     0.84500
C3592       C  0.81239410  0.73557719  0.58352029     0.90800
O3593       O  0.50307715  0.98987136  0.72008498    -0.73000
O3594       O  0.50188996  0.99340007  0.78043844    -0.74000
O3595       O  0.95739622  0.94687250  0.75004507    -0.62600
O3596       O  0.54716517  0.53915290  0.74859544    -0.71000
O3597       O  0.51807077  0.56749892  0.74734612    -0.70500
O3598       O  0.92944135  0.97654879  0.74775795    -0.61800
O3599       O  0.97152033  0.52335943  0.77889054    -0.74300
O3600       O  0.97251303  0.52238995  0.71834853    -0.73100
Cu3601     Cu  0.50321778  0.99042233  0.75036832     1.04600
Cu3602     Cu  0.97089202  0.52371461  0.74854090     1.04300
C3603       C  0.99164650  0.00488152  0.70896430     0.93200
C3604       C  0.98624171  0.50944608  0.78888882     0.92400
C3605       C  0.92890502  0.94764348  0.74907665     0.84500
C3606       C  0.54716032  0.56779831  0.74783723     0.90800
O3607       O  0.55139174  0.80370407  0.74741659    -0.73000
O3608       O  0.96047574  0.71404029  0.74932745    -0.74000
O3609       O  0.00760745  0.75883372  0.77849562    -0.62600
O3610       O  0.00458556  0.75701214  0.71819147    -0.71000
O3611       O  0.53157817  0.72775817  0.71805864    -0.70500
O3612       O  0.53469681  0.73117502  0.77859277    -0.61800
O3613       O  0.98775945  0.68377696  0.74940779    -0.74300
O3614       O  0.57928528  0.77417708  0.74747756    -0.73100
Cu3615     Cu  0.00529609  0.75910638  0.74838373     1.04600
Cu3616     Cu  0.53423024  0.72855922  0.74836669     1.04300
C3617       C  0.58009552  0.80326808  0.74745859     0.93200
C3618       C  0.95944551  0.68483719  0.74987973     0.92400
C3619       C  0.02125295  0.74364658  0.78826839     0.84500
C3620       C  0.01732925  0.74105852  0.70869146     0.90800
O3621       O  0.79383832  0.56071788  0.75118978    -0.73000
O3622       O  0.70874845  0.96646135  0.75107846    -0.74000
O3623       O  0.74577629  0.51229444  0.77943123    -0.62600
O3624       O  0.75069674  0.51877154  0.71943338    -0.71000
O3625       O  0.78410244  0.98710160  0.72108551    -0.70500
O3626       O  0.78205857  0.98001789  0.78173179    -0.61800
O3627       O  0.73789972  0.93825538  0.74994251    -0.74300
O3628       O  0.82286599  0.53216020  0.75084169    -0.73100
Cu3629     Cu  0.74746846  0.51635615  0.74943486     1.04600
Cu3630     Cu  0.78420701  0.98271343  0.75139334     1.04300
C3631       C  0.82279160  0.56078737  0.75124701     0.93200
C3632       C  0.70874821  0.93785837  0.75009973     0.92400
C3633       C  0.75938419  0.49702445  0.78902731     0.84500
C3634       C  0.76641864  0.50620685  0.70951830     0.90800
O3635       O  0.74590472  0.75145468  0.77958834    -0.73000
O3636       O  0.75425295  0.74245976  0.72035329    -0.74000
O3637       O  0.79531580  0.79230093  0.74997536    -0.62600
O3638       O  0.70425076  0.70222971  0.75010122    -0.71000
O3639       O  0.67581248  0.73073658  0.74502696    -0.70500
O3640       O  0.76668422  0.82044284  0.74374271    -0.61800
O3641       O  0.72448364  0.76964976  0.71437690    -0.74300
O3642       O  0.71824805  0.78091049  0.77455602    -0.73100
Cu3643     Cu  0.75090671  0.74617710  0.75018934     1.04600
Cu3644     Cu  0.72034298  0.77648358  0.74420620     1.04300
C3645       C  0.73110989  0.76752895  0.78657250     0.93200
C3646       C  0.74023175  0.75401848  0.70799140     0.92400
C3647       C  0.79534970  0.82070364  0.74677519     0.84500
C3648       C  0.67544086  0.70213821  0.74772840     0.90800
C3649       C  0.89595810  0.65414203  0.74322086    -0.05800
C3650       C  0.92491897  0.65248720  0.75075008     0.00100
C3651       C  0.91974451  0.62081947  0.75916027    -0.08500
C3652       C  0.88577760  0.59216420  0.75948360    -0.05800
C3653       C  0.85689521  0.59367840  0.75165287     0.00100
C3654       C  0.86206627  0.62538397  0.74335585    -0.08400
C3655       C  0.83251249  0.62901295  0.73406223     0.62000
H3656       H  0.90018185  0.67836197  0.73683689     0.12700
H3657       H  0.88154502  0.56789912  0.76580882     0.12700
C3658       C  0.94944087  0.61689732  0.76802665     0.62300
F3659       F  0.84417598  0.66129490  0.72540608    -0.22900
F3660       F  0.80864839  0.62466799  0.74871981    -0.20200
F3661       F  0.81630682  0.60451845  0.71915463    -0.19900
F3662       F  0.96689372  0.64192869  0.78250345    -0.20000
F3663       F  0.97227964  0.62008608  0.75298128    -0.20300
F3664       F  0.93769892  0.58489235  0.77708055    -0.23000
C3665       C  0.61186515  0.86758377  0.74854276    -0.05800
C3666       C  0.61392035  0.83703267  0.74779941     0.00100
C3667       C  0.64754648  0.84006976  0.74778435    -0.08500
C3668       C  0.67725489  0.87338467  0.74842791    -0.05800
C3669       C  0.67514636  0.90392257  0.74924203     0.00100
C3670       C  0.64147137  0.90083594  0.74935705    -0.08400
C3671       C  0.63593867  0.93196692  0.75038816     0.62000
H3672       H  0.58637428  0.86531256  0.74861255     0.12700
H3673       H  0.70278737  0.87572777  0.74840174     0.12700
C3674       C  0.65277102  0.80877736  0.74714312     0.62300
F3675       F  0.60100352  0.92246146  0.75040973    -0.22900
F3676       F  0.65090811  0.95318745  0.73385365    -0.20200
F3677       F  0.65045703  0.95018076  0.76791064    -0.19900
F3678       F  0.63770950  0.78994664  0.72987318    -0.20000
F3679       F  0.63803420  0.78824452  0.76395391    -0.20300
F3680       F  0.68764727  0.81811155  0.74697870    -0.23000
C3681       C  0.87005530  0.91148982  0.73454493    -0.05800
C3682       C  0.89488766  0.91501355  0.74901449     0.00100
C3683       C  0.88624364  0.88821051  0.76331454    -0.08500
C3684       C  0.85357538  0.85785664  0.76185955    -0.05800
C3685       C  0.82888909  0.85399441  0.74716809     0.00100
C3686       C  0.83699664  0.88151707  0.73339434    -0.08400
C3687       C  0.81139515  0.87923236  0.71726829     0.62000
H3688       H  0.87692069  0.93257665  0.72401808     0.12700
H3689       H  0.84677680  0.83693366  0.77249721     0.12700
C3690       C  0.91059264  0.89224063  0.78062152     0.62300
F3691       F  0.82622133  0.90709383  0.70411506    -0.22900
F3692       F  0.78310649  0.87899812  0.72613582    -0.20200
F3693       F  0.80019174  0.84936228  0.70615327    -0.19900
F3694       F  0.92001034  0.92270441  0.79076285    -0.20000
F3695       F  0.94011029  0.89288844  0.77339270    -0.20300
F3696       F  0.89504679  0.86525041  0.79431196    -0.23000
C3697       C  0.57900549  0.63187908  0.75161048    -0.05800
C3698       C  0.58069994  0.60168711  0.74772964     0.00100
C3699       C  0.61388158  0.60501716  0.74382792    -0.08500
C3700       C  0.64354890  0.63828786  0.74383201    -0.05800
C3701       C  0.64185058  0.66840716  0.74776272     0.00100
C3702       C  0.60878761  0.66511108  0.75186450    -0.08400
C3703       C  0.60444445  0.69604666  0.75690217     0.62000
H3704       H  0.55381958  0.62928325  0.75463806     0.12700
H3705       H  0.66875212  0.64101982  0.74068191     0.12700
C3706       C  0.61868020  0.57407670  0.73957951     0.62300
F3707       F  0.57067587  0.68622090  0.76248662    -0.22900
F3708       F  0.61237340  0.71742561  0.74026140    -0.20200
F3709       F  0.62610512  0.71419896  0.77278275    -0.19900
F3710       F  0.59827481  0.55573280  0.72333735    -0.20000
F3711       F  0.60963046  0.55288107  0.75638119    -0.20300
F3712       F  0.65284201  0.58388852  0.73498783    -0.23000
C3713       C  0.71754300  0.72488079  0.65352434    -0.05800
C3714       C  0.75071291  0.74102629  0.64473120     0.00100
C3715       C  0.78057279  0.75999275  0.65702265    -0.08500
C3716       C  0.77596424  0.76382304  0.67760993    -0.05800
C3717       C  0.74270529  0.74922191  0.68616328     0.00100
C3718       C  0.71300139  0.72850417  0.67415787    -0.08400
C3719       C  0.67684940  0.70959070  0.68326216     0.62000
H3720       H  0.69507346  0.71007180  0.64396118     0.12700
H3721       H  0.79838989  0.77857991  0.68722322     0.12700
C3722       C  0.81711844  0.77490542  0.64862186     0.62300
F3723       F  0.65195836  0.68844638  0.66939245    -0.22900
F3724       F  0.66778118  0.73323110  0.69020665    -0.20200
F3725       F  0.67641756  0.68905074  0.69910830    -0.19900
F3726       F  0.82394995  0.80136933  0.63520414    -0.20000
F3727       F  0.82017569  0.74918607  0.63887734    -0.20300
F3728       F  0.84217735  0.78817565  0.66364418    -0.23000
C3729       C  0.73809971  0.50812025  0.67770078    -0.05800
C3730       C  0.76706499  0.50891556  0.68718020     0.00100
C3731       C  0.79610421  0.00745275  0.67713034    -0.08500
C3732       C  0.79276936  0.00962901  0.65611128    -0.05800
C3733       C  0.76411918  0.51437890  0.64491382     0.00100
C3734       C  0.73626118  0.51102374  0.65672761    -0.08400
C3735       C  0.70502284  0.51103174  0.64710060     0.62000
H3736       H  0.71660567  0.50495985  0.68688950     0.12700
H3737       H  0.81330455  0.01233256  0.64620311     0.12700
C3738       C  0.82924336  0.00992146  0.68565010     0.62300
F3739       F  0.67948525  0.99898835  0.66534959    -0.22900
F3740       F  0.68709084  0.97482340  0.63782086    -0.20200
F3741       F  0.71598607  0.54159432  0.63655259    -0.19900
F3742       F  0.82185589  0.97869333  0.69433819    -0.20000
F3743       F  0.84131732  0.54305219  0.69904819    -0.20300
F3744       F  0.85480789  0.52657881  0.67036882    -0.23000
C3745       C  0.87263574  0.75904078  0.59567258    -0.05800
C3746       C  0.84530675  0.73457783  0.58375090     0.00100
C3747       C  0.85054180  0.71112206  0.57193453    -0.08500
C3748       C  0.88333376  0.71324296  0.57254604    -0.05800
C3749       C  0.91085969  0.73817812  0.58418065     0.00100
C3750       C  0.90543842  0.76127239  0.59619127    -0.08400
C3751       C  0.93376717  0.78785519  0.60975257     0.62000
H3752       H  0.86807562  0.77667496  0.60457824     0.12700
H3753       H  0.88800690  0.69576936  0.56355889     0.12700
C3754       C  0.82236213  0.68493471  0.55810523     0.62300
F3755       F  0.92095275  0.80322082  0.62257841    -0.22900
F3756       F  0.95950909  0.81366228  0.59816694    -0.20200
F3757       F  0.94804844  0.77217065  0.62146991    -0.19900
F3758       F  0.81013709  0.70152736  0.54554730    -0.20000
F3759       F  0.79516925  0.66013341  0.56938680    -0.20300
F3760       F  0.83468728  0.66807225  0.54611758    -0.23000
C3761       C  0.59957806  0.71477425  0.58670625    -0.05800
C3762       C  0.60055944  0.74561408  0.58072657     0.00100
C3763       C  0.63319363  0.77483957  0.57566290    -0.08500
C3764       C  0.66308895  0.77128845  0.57607849    -0.05800
C3765       C  0.66191598  0.74024287  0.58180846     0.00100
C3766       C  0.62949456  0.71148794  0.58765067    -0.08400
C3767       C  0.62586757  0.67749291  0.59531784     0.62000
H3768       H  0.57480664  0.69284321  0.59090311     0.12700
H3769       H  0.68795370  0.79310810  0.57188272     0.12700
C3770       C  0.63708459  0.80972433  0.56984459     0.62300
F3771       F  0.59273144  0.65513371  0.60242610    -0.22900
F3772       F  0.64890081  0.68380026  0.61104704    -0.20200
F3773       F  0.63238214  0.66080630  0.57990748    -0.19900
F3774       F  0.62805398  0.82315467  0.58592935    -0.20000
F3775       F  0.61603271  0.80596927  0.55346456    -0.20300
F3776       F  0.67096447  0.83364199  0.56464018    -0.23000
C3777       C  0.99180213  0.71215008  0.65460011    -0.05800
C3778       C  0.01291049  0.74314578  0.64397811     0.00100
C3779       C  0.52696066  0.77688445  0.65535973    -0.08500
C3780       C  0.52792564  0.77407097  0.67643594    -0.05800
C3781       C  0.01581548  0.74027240  0.68652538     0.00100
C3782       C  0.99309655  0.71010254  0.67570401    -0.08400
C3783       C  0.96983046  0.67614779  0.68648070     0.62000
H3784       H  0.97389125  0.68932054  0.64624959     0.12700
H3785       H  0.53814526  0.79703307  0.68567656     0.12700
C3786       C  0.54096651  0.81280289  0.64620378     0.62300
F3787       F  0.94938340  0.64992840  0.67317493    -0.22900
F3788       F  0.94801808  0.68033665  0.69952653    -0.20200
F3789       F  0.99003057  0.66588354  0.69727240    -0.19900
F3790       F  0.51502056  0.81443694  0.63537427    -0.20000
F3791       F  0.56879581  0.82026328  0.63379118    -0.20300
F3792       F  0.55266978  0.83838012  0.66071305    -0.23000
C3793       C  0.85700208  0.99033036  0.59710930    -0.05800
C3794       C  0.85202009  0.51539855  0.58082006     0.00100
C3795       C  0.87672282  0.53190464  0.56531160    -0.08500
C3796       C  0.90794285  0.53086159  0.56615363    -0.05800
C3797       C  0.91491134  0.51422533  0.58200242     0.00100
C3798       C  0.88760668  0.98814683  0.59726810    -0.08400
C3799       C  0.89365350  0.96831725  0.61403727     0.62000
H3800       H  0.83735971  0.97701356  0.60852264     0.12700
H3801       H  0.92721767  0.54301396  0.55442407     0.12700
C3802       C  0.86984931  0.54986534  0.54781173     0.62300
F3803       F  0.86753571  0.95621982  0.62830872    -0.22900
F3804       F  0.92484957  0.98977889  0.62363832    -0.20200
F3805       F  0.89463294  0.94013037  0.60622082    -0.19900
F3806       F  0.86867317  0.57851900  0.55464973    -0.20000
F3807       F  0.83844473  0.52731367  0.53873898    -0.20300
F3808       F  0.89562845  0.56093145  0.53337450    -0.23000
C3809       C  0.62945564  0.54224588  0.58457998    -0.05800
C3810       C  0.59883333  0.50974790  0.58414122     0.00100
C3811       C  0.60238306  0.97663799  0.58701870    -0.08500
C3812       C  0.63596867  0.98064950  0.58776127    -0.05800
C3813       C  0.66600252  0.51554671  0.58529397     0.00100
C3814       C  0.66294369  0.54595262  0.58521751    -0.08400
C3815       C  0.69430695  0.58240312  0.58576781     0.62000
H3816       H  0.62706233  0.56526932  0.58426637     0.12700
H3817       H  0.63856363  0.95782967  0.58927428     0.12700
C3818       C  0.57120941  0.94010787  0.58816832     0.62300
F3819       F  0.68469340  0.60764506  0.58616377    -0.22900
F3820       F  0.71446541  0.58828473  0.56881727    -0.20200
F3821       F  0.71391571  0.58644490  0.60289283    -0.19900
F3822       F  0.55180600  0.93264469  0.57062745    -0.20000
F3823       F  0.55075833  0.93719334  0.60450729    -0.20300
F3824       F  0.58107734  0.91521052  0.59044103    -0.23000
C3825       C  0.49385065  0.48123083  0.67687013    -0.05800
C3826       C  0.99404906  0.00512506  0.68650117     0.00100
C3827       C  0.98922741  0.02844173  0.67383048    -0.08500
C3828       C  0.99260899  0.02677465  0.65291710    -0.05800
C3829       C  0.49823303  0.50640250  0.64368262     0.00100
C3830       C  0.49749971  0.47979460  0.65595096    -0.08400
C3831       C  0.50135988  0.45036064  0.64729309     0.62000
H3832       H  0.49331659  0.46111508  0.68637402     0.12700
H3833       H  0.98845081  0.04386222  0.64303728     0.12700
C3834       C  0.98114129  0.05555038  0.68194260     0.62300
F3835       F  0.50461187  0.43022783  0.66219579    -0.22900
F3836       F  0.53083696  0.46362192  0.63546131    -0.20200
F3837       F  0.49519383  0.93277151  0.63780479    -0.19900
F3838       F  0.00695306  0.58149346  0.69754170    -0.20000
F3839       F  0.94867358  0.03948680  0.69085824    -0.20300
F3840       F  0.98069652  0.07704669  0.66690992    -0.23000
C3841       C  0.73602339  0.79850876  0.84080961    -0.05800
C3842       C  0.72969690  0.76856344  0.85152985     0.00100
C3843       C  0.72096546  0.73787040  0.84071436    -0.08500
C3844       C  0.72073776  0.73886365  0.81959503    -0.05800
C3845       C  0.72841153  0.76901692  0.80881093     0.00100
C3846       C  0.73570553  0.79937606  0.81952142    -0.08400
C3847       C  0.74437108  0.83277100  0.80861503     0.62000
H3848       H  0.74207681  0.82153520  0.84927982     0.12700
H3849       H  0.71486278  0.71581775  0.81119058     0.12700
C3850       C  0.71099337  0.70373785  0.85124479     0.62300
F3851       F  0.75364667  0.85988087  0.82184742    -0.22900
F3852       F  0.71568634  0.82836640  0.79774065    -0.20200
F3853       F  0.77197461  0.84188424  0.79567930    -0.19900
F3854       F  0.68529865  0.69648154  0.86526663    -0.20000
F3855       F  0.73978697  0.70554550  0.86070016    -0.20300
F3856       F  0.69821871  0.67637634  0.83787597    -0.23000
C3857       C  0.78674067  0.50040932  0.82217634    -0.05800
C3858       C  0.75698823  0.49454897  0.81132054     0.00100
C3859       C  0.73241758  0.97505897  0.82465253    -0.08500
C3860       C  0.73322444  0.97443301  0.84581898    -0.05800
C3861       C  0.75641088  0.49173310  0.85395907     0.00100
C3862       C  0.78723113  0.49959823  0.84335903    -0.08400
C3863       C  0.82096279  0.50847617  0.85423198     0.62000
H3864       H  0.81002208  0.50635514  0.81385007     0.12700
H3865       H  0.70926649  0.96484690  0.85422311     0.12700
C3866       C  0.69762178  0.96013295  0.81376430     0.62300
F3867       F  0.84875358  0.52059036  0.84111325    -0.22900
F3868       F  0.81778792  0.47932321  0.86374915    -0.20200
F3869       F  0.82863502  0.53407845  0.86828631    -0.19900
F3870       F  0.69470769  0.93567643  0.79998933    -0.20000
F3871       F  0.69501879  0.98617590  0.80386884    -0.20300
F3872       F  0.66986614  0.94414395  0.82691157    -0.23000
C3873       C  0.87545109  0.58357855  0.90995869    -0.05800
C3874       C  0.84570745  0.58482188  0.91612310     0.00100
C3875       C  0.84962852  0.61724780  0.92196297    -0.08500
C3876       C  0.88296789  0.64693840  0.92109166    -0.05800
C3877       C  0.91272489  0.64575276  0.91487231     0.00100
C3878       C  0.90885760  0.61321938  0.90923455    -0.08400
C3879       C  0.93934710  0.60928981  0.90218098     0.62000
H3880       H  0.87230998  0.55882506  0.90555490     0.12700
H3881       H  0.88604952  0.67165845  0.92551001     0.12700
C3882       C  0.81925371  0.62090374  0.92952522     0.62300
F3883       F  0.92883263  0.57602008  0.89569954    -0.22900
F3884       F  0.96268602  0.61646529  0.91784039    -0.20200
F3885       F  0.95581833  0.63157649  0.88625990    -0.19900
F3886       F  0.80301543  0.59804668  0.94525572    -0.20000
F3887       F  0.79568317  0.61424229  0.91406620    -0.20300
F3888       F  0.82987408  0.65392175  0.93651022    -0.23000
C3889       C  0.62662961  0.83791810  0.90405024    -0.05800
C3890       C  0.59961503  0.83388350  0.91672979     0.00100
C3891       C  0.60532025  0.86134308  0.92979225    -0.08500
C3892       C  0.63800325  0.89198493  0.92956188    -0.05800
C3893       C  0.66496147  0.89601927  0.91682275     0.00100
C3894       C  0.65907832  0.86873664  0.90359570    -0.08400
C3895       C  0.68623785  0.87266652  0.88836551     0.62000
H3896       H  0.62181251  0.81677871  0.89413690     0.12700
H3897       H  0.64286656  0.91316281  0.93945295     0.12700
C3898       C  0.57745577  0.85813791  0.94427487     0.62300
F3899       F  0.67348096  0.84496242  0.87525035    -0.22900
F3900       F  0.71480763  0.87463342  0.89815749    -0.20200
F3901       F  0.69653074  0.90241235  0.87708523    -0.19900
F3902       F  0.56542615  0.82816497  0.95559198    -0.20000
F3903       F  0.55006149  0.85725860  0.93362778    -0.20300
F3904       F  0.59004447  0.88578397  0.95742685    -0.23000
C3905       C  0.54381478  0.75146222  0.84359636    -0.05800
C3906       C  0.01135186  0.74132872  0.85324932     0.00100
C3907       C  0.98890833  0.74723014  0.84043080    -0.08500
C3908       C  0.99377727  0.74813571  0.81951615    -0.05800
C3909       C  0.01932908  0.74245090  0.81073555     0.00100
C3910       C  0.54819067  0.75301202  0.82257779    -0.08400
C3911       C  0.58382903  0.76382273  0.81386293     0.62000
H3912       H  0.56558926  0.75697007  0.85342861     0.12700
H3913       H  0.97692766  0.75287268  0.80972068     0.12700
C3914       C  0.95922380  0.75170777  0.84839857     0.62300
F3915       F  0.60917061  0.77416600  0.82869093    -0.22900
F3916       F  0.59346527  0.79131813  0.80071317    -0.20200
F3917       F  0.58295396  0.73639767  0.80373366    -0.19900
F3918       F  0.97247922  0.78242139  0.85890109    -0.20000
F3919       F  0.93822965  0.72417532  0.86083786    -0.20300
F3920       F  0.93836758  0.75276733  0.83308371    -0.23000
C3921       C  0.86516264  0.92168952  0.91047860    -0.05800
C3922       C  0.89453044  0.92002104  0.91719788     0.00100
C3923       C  0.88983919  0.88776489  0.92432858    -0.08500
C3924       C  0.85626522  0.85835157  0.92350156    -0.05800
C3925       C  0.82698289  0.85986143  0.91637134     0.00100
C3926       C  0.83146576  0.89248127  0.91010212    -0.08400
C3927       C  0.80125515  0.89694482  0.90283599     0.62000
H3928       H  0.86886028  0.94640431  0.90530774     0.12700
H3929       H  0.85262857  0.83360819  0.92857332     0.12700
C3930       C  0.91962103  0.88406008  0.93321956     0.62300
F3931       F  0.81213389  0.93031510  0.89621093    -0.22900
F3932       F  0.77824485  0.89005362  0.91846922    -0.20200
F3933       F  0.78437546  0.87480227  0.88697487    -0.19900
F3934       F  0.93628935  0.90846073  0.94812031    -0.20000
F3935       F  0.94309432  0.88843163  0.91830955    -0.20300
F3936       F  0.90808016  0.85174179  0.94179833    -0.23000
C3937       C  0.57682359  0.63600746  0.90879919    -0.05800
C3938       C  0.57911277  0.60634069  0.91370407     0.00100
C3939       C  0.61257832  0.61041031  0.91790607    -0.08500
C3940       C  0.64192661  0.64384290  0.91717215    -0.05800
C3941       C  0.63964444  0.67353333  0.91245491     0.00100
C3942       C  0.60628298  0.66947768  0.90799236    -0.08400
C3943       C  0.60125815  0.69982099  0.90207430     0.62000
H3944       H  0.55140195  0.63279391  0.90548563     0.12700
H3945       H  0.66731245  0.64703309  0.92054045     0.12700
C3946       C  0.61795481  0.58013707  0.92349987     0.62300
F3947       F  0.56718500  0.68923980  0.89654403    -0.22900
F3948       F  0.62221935  0.71721247  0.88583889    -0.20200
F3949       F  0.60952322  0.72215672  0.91814454    -0.19900
F3950       F  0.60878164  0.55761079  0.90745673    -0.20000
F3951       F  0.59801454  0.56298902  0.94010968    -0.20300
F3952       F  0.65231605  0.59071848  0.92829667    -0.23000
C3953       C  0.51382912  0.51460318  0.84326956    -0.05800
C3954       C  0.48445339  0.51206827  0.85285755     0.00100
C3955       C  0.95481982  0.00077028  0.84172398    -0.08500
C3956       C  0.95691765  0.00051830  0.82057287    -0.05800
C3957       C  0.98670967  0.51058363  0.81126064     0.00100
C3958       C  0.51616346  0.51382173  0.82221584    -0.08400
C3959       C  0.54924395  0.51765482  0.81295677     0.62000
H3960       H  0.53527350  0.51728766  0.85252879     0.12700
H3961       H  0.93364830  0.99181523  0.81147546     0.12700
C3962       C  0.91970833  0.98780006  0.85170129     0.62300
F3963       F  0.57506296  0.52556459  0.82722608    -0.22900
F3964       F  0.56212066  0.54405927  0.79882867    -0.20200
F3965       F  0.54228354  0.48698656  0.80391204    -0.19900
F3966       F  0.91936462  0.01452315  0.86195417    -0.20000
F3967       F  0.91351324  0.96136181  0.86504524    -0.20300
F3968       F  0.89274978  0.97511155  0.83779947    -0.23000
C3969       C  0.75445236  0.74830904  0.98485602    -0.05800
C3970       C  0.73067698  0.75710173  0.97619623     0.00100
C3971       C  0.70621434  0.75941577  0.98899979    -0.08500
C3972       C  0.70770687  0.75426463  0.00991455    -0.05800
C3973       C  0.73230819  0.74665517  0.01847380     0.00100
C3974       C  0.75547813  0.74262277  0.00564809    -0.08400
C3975       C  0.78055630  0.73126968  0.01364473     0.62000
H3976       H  0.77278547  0.74612681  0.97515564     0.12700
H3977       H  0.68993620  0.75684814  0.01991125     0.12700
C3978       C  0.67827060  0.76677893  0.98091720     0.62300
F3979       F  0.79565243  0.72252416  0.99826814    -0.22900
F3980       F  0.76298627  0.70246994  0.02589673    -0.20200
F3981       F  0.80698119  0.75782547  0.02447319    -0.19900
F3982       F  0.65904692  0.74317140  0.96608624    -0.20000
F3983       F  0.69358647  0.80000081  0.97313226    -0.20300
F3984       F  0.65534535  0.76423204  0.99577657    -0.23000
C3985       C  0.70962103  0.83687612  0.07360941    -0.05800
C3986       C  0.73589575  0.83410932  0.08401831     0.00100
C3987       C  0.76076030  0.86279442  0.09539162    -0.08500
C3988       C  0.75831768  0.89318208  0.09578856    -0.05800
C3989       C  0.73221089  0.89609221  0.08524028     0.00100
C3990       C  0.70746786  0.86743534  0.07375324    -0.08400
C3991       C  0.67957095  0.86911924  0.06107594     0.62000
H3992       H  0.69089570  0.81480615  0.06499460     0.12700
H3993       H  0.77710742  0.91521821  0.10439742     0.12700
C3994       C  0.78943481  0.86143615  0.10741968     0.62300
F3995       F  0.66140587  0.84000216  0.04922920    -0.22900
F3996       F  0.69471734  0.89757754  0.04839158    -0.20200
F3997       F  0.65583115  0.87144266  0.07343266    -0.19900
F3998       F  0.81292915  0.85987209  0.09448379    -0.20000
F3999       F  0.77522777  0.83268041  0.11989595    -0.20300
F4000       F  0.80767911  0.89040720  0.11936968    -0.23000
C4001       C  0.76491806  0.64744261  0.07222151    -0.05800
C4002       C  0.73502270  0.64706618  0.07969284     0.00100
C4003       C  0.70790847  0.61558435  0.08789393    -0.08500
C4004       C  0.71213596  0.58616633  0.08839360    -0.05800
C4005       C  0.74218940  0.58670250  0.08113327     0.00100
C4006       C  0.76905756  0.61796665  0.07268757    -0.08400
C4007       C  0.80176961  0.62043248  0.06378248     0.62000
H4008       H  0.78539569  0.67137656  0.06592478     0.12700
H4009       H  0.69174613  0.56219346  0.09470804     0.12700
C4010       C  0.67479818  0.61268364  0.09650777     0.62300
F4011       F  0.82223953  0.65186432  0.05423830    -0.22900
F4012       F  0.79283800  0.59459342  0.04970103    -0.20200
F4013       F  0.82161849  0.61715013  0.07888887    -0.19900
F4014       F  0.65593489  0.61740923  0.08135653    -0.20000
F4015       F  0.68310525  0.63730713  0.11129732    -0.20300
F4016       F  0.65351877  0.58054257  0.10510496    -0.23000
C4017       C  0.72243742  0.99708963  0.01133811    -0.05800
C4018       C  0.74951530  0.49380058  0.02108735     0.00100
C4019       C  0.77807558  0.49564791  0.01028829    -0.08500
C4020       C  0.77669051  0.49493349  0.98909303    -0.05800
C4021       C  0.74797327  0.49213115  0.97831783     0.00100
C4022       C  0.72374067  0.99714334  0.99015037    -0.08400
C4023       C  0.69815920  0.00401058  0.97834409     0.62000
H4024       H  0.70435642  0.00301816  0.01879866     0.12700
H4025       H  0.79851142  0.49705887  0.98065783     0.12700
C4026       C  0.80970406  0.49766022  0.02077772     0.62300
F4027       F  0.67402714  0.00573401  0.99071335    -0.22900
F4028       F  0.67987343  0.97757318  0.96475657    -0.20200
F4029       F  0.71592515  0.03529610  0.96826681    -0.19900
F4030       F  0.79921403  0.47097375  0.03460871    -0.20000
F4031       F  0.82834256  0.52912517  0.03042525    -0.20300
F4032       F  0.83193353  0.49480563  0.00736021    -0.23000
C4033       C  0.52604503  0.74139566  0.00998429    -0.05800
C4034       C  0.00186074  0.74774453  0.01981810     0.00100
C4035       C  0.97537173  0.74752154  0.00753102    -0.08500
C4036       C  0.97708408  0.74423468  0.98658541    -0.05800
C4037       C  0.00325901  0.73971336  0.97759043     0.00100
C4038       C  0.52736941  0.73702871  0.98914193    -0.08400
C4039       C  0.55488636  0.72930492  0.98106293     0.62000
H4040       H  0.54484557  0.73977474  0.01979151     0.12700
H4041       H  0.95748556  0.74480584  0.97699527     0.12700
C4042       C  0.94555266  0.75096610  0.01622580     0.62300
F4043       F  0.57630401  0.72865303  0.99615514    -0.22900
F4044       F  0.57576785  0.75443998  0.96730156    -0.20200
F4045       F  0.53887124  0.69713152  0.97200400    -0.19900
F4046       F  0.95851369  0.78046336  0.02787445    -0.20000
F4047       F  0.92469916  0.72218794  0.02786158    -0.20300
F4048       F  0.92472192  0.75330200  0.00134500    -0.23000
C4049       C  0.98266184  0.85297448  0.07456701    -0.05800
C4050       C  0.01345852  0.85320359  0.08028768     0.00100
C4051       C  0.54180213  0.88420842  0.08446928    -0.08500
C4052       C  0.53911319  0.91452410  0.08449290    -0.05800
C4053       C  0.00898468  0.91507565  0.08026802     0.00100
C4054       C  0.97966197  0.88305073  0.07448002    -0.08400
C4055       C  0.94520111  0.88004625  0.06800912     0.62000
H4056       H  0.96047441  0.82860433  0.07013008     0.12700
H4057       H  0.56197983  0.93906069  0.08787614     0.12700
C4058       C  0.57668628  0.88707806  0.08973731     0.62300
F4059       F  0.92173459  0.84720702  0.06116002    -0.22900
F4060       F  0.95064457  0.90310587  0.05252065    -0.20200
F4061       F  0.93006894  0.88688741  0.08416345    -0.19900
F4062       F  0.58938197  0.87804561  0.07329682    -0.20000
F4063       F  0.57277262  0.86553983  0.10582131    -0.20300
F4064       F  0.60143064  0.92039925  0.09516533    -0.23000
C4065       C  0.52257953  0.65587479  0.06824359    -0.05800
C4066       C  0.00521172  0.66320174  0.08345139     0.00100
C4067       C  0.98482074  0.63691575  0.09757344    -0.08500
C4068       C  0.98512322  0.60544796  0.09697777    -0.05800
C4069       C  0.00544786  0.59978052  0.08306809     0.00100
C4070       C  0.52317118  0.62458488  0.06766991    -0.08400
C4071       C  0.54495369  0.61970909  0.05183132     0.62000
H4072       H  0.53804864  0.67641432  0.05768717     0.12700
H4073       H  0.96963401  0.58497517  0.10756175     0.12700
C4074       C  0.96369414  0.64229564  0.11361378     0.62300
F4075       F  0.55903582  0.64687092  0.03818064    -0.22900
F4076       F  0.52450384  0.58959525  0.04121011    -0.20200
F4077       F  0.57219285  0.61788242  0.06094900    -0.19900
F4078       F  0.93618056  0.64398898  0.10479102    -0.20000
F4079       F  0.98454113  0.67267707  0.12388771    -0.20300
F4080       F  0.95016591  0.61554307  0.12753243    -0.23000
C4081       C  0.02867040  0.02152588  0.98586753    -0.05800
C4082       C  0.48921770  0.50916312  0.97749673     0.00100
C4083       C  0.46568494  0.51310378  0.99026082    -0.08500
C4084       C  0.46902344  0.51105382  0.01126665    -0.05800
C4085       C  0.49434843  0.50470347  0.01995731     0.00100
C4086       C  0.03378066  0.02161289  0.00683967    -0.08400
C4087       C  0.07012665  0.03217613  0.01465736     0.62000
H4088       H  0.05044417  0.02947529  0.97575979     0.12700
H4089       H  0.45196558  0.51487369  0.02121498     0.12700
C4090       C  0.43662304  0.51869659  0.98209686     0.62300
F4091       F  0.09345016  0.03873028  0.99920978    -0.22900
F4092       F  0.06911948  0.00582744  0.02633655    -0.20200
F4093       F  0.58233243  0.06350257  0.02691774    -0.19900
F4094       F  0.91808737  0.49340202  0.96970604    -0.20000
F4095       F  0.45062111  0.55052110  0.97257254    -0.20300
F4096       F  0.41499996  0.51820865  0.99720149    -0.23000
C4097       C  0.77856685  0.76224303  0.48743798    -0.05800
C4098       C  0.75071352  0.73419332  0.47762757     0.00100
C4099       C  0.72434727  0.70726413  0.48943244    -0.08500
C4100       C  0.72720625  0.70956291  0.51056432    -0.05800
C4101       C  0.75498774  0.73770010  0.52036801     0.00100
C4102       C  0.78137288  0.76460723  0.50855142    -0.08400
C4103       C  0.81287525  0.79550571  0.51789110     0.62000
H4104       H  0.79850605  0.78255623  0.47831427     0.12700
H4105       H  0.70726435  0.68928281  0.51970319     0.12700
C4106       C  0.69282178  0.67645781  0.48005295     0.62300
F4107       F  0.83727625  0.81573649  0.50359268    -0.22900
F4108       F  0.82903398  0.78420546  0.53143642    -0.20200
F4109       F  0.80257451  0.81628610  0.52760733    -0.19900
F4110       F  0.70316714  0.65587602  0.47014854    -0.20000
F4111       F  0.67652587  0.68781969  0.46664915    -0.20300
F4112       F  0.66851388  0.65605710  0.49434340    -0.23000
C4113       C  0.75758566  0.98510497  0.51377897    -0.05800
C4114       C  0.75530404  0.51458822  0.52114260     0.00100
C4115       C  0.74570509  0.53535591  0.50946777    -0.08500
C4116       C  0.74606284  0.53333142  0.48835009    -0.05800
C4117       C  0.75481621  0.51077243  0.47868359     0.00100
C4118       C  0.75853601  0.98208199  0.49277827    -0.08400
C4119       C  0.75704249  0.94972799  0.48424021     0.62000
H4120       H  0.75471561  0.96397107  0.52325113     0.12700
H4121       H  0.73906245  0.54916244  0.47915055     0.12700
C4122       C  0.73390551  0.55857371  0.51916752     0.62300
F4123       F  0.75915197  0.92894399  0.49915629    -0.22900
F4124       F  0.78469241  0.95896087  0.47132047    -0.20200
F4125       F  0.72594352  0.93019777  0.47407390    -0.19900
F4126       F  0.76179973  0.58600572  0.52859782    -0.20000
F4127       F  0.70817580  0.53988147  0.53313770    -0.20300
F4128       F  0.72039526  0.57195992  0.50514409    -0.23000
C4129       C  0.00235441  0.71077071  0.50987605    -0.05800
C4130       C  0.99974819  0.73742169  0.51950295     0.00100
C4131       C  0.49411020  0.76176233  0.50715000    -0.08500
C4132       C  0.49389835  0.75889605  0.48609494    -0.05800
C4133       C  0.99941187  0.73339832  0.47689348     0.00100
C4134       C  0.00188069  0.70798922  0.48874191    -0.08400
C4135       C  0.00462758  0.67841843  0.47933906     0.62000
H4136       H  0.00504993  0.69210930  0.51913469     0.12700
H4137       H  0.48967988  0.77658663  0.47680950     0.12700
C4138       C  0.48626051  0.78826529  0.51640871     0.62300
F4139       F  0.01020719  0.65887321  0.49363498    -0.22900
F4140       F  0.03212505  0.69133829  0.46597985    -0.20200
F4141       F  0.97398943  0.65661213  0.46932706    -0.19900
F4142       F  0.51601220  0.81444679  0.52524378    -0.20000
F4143       F  0.46044662  0.77250855  0.53073662    -0.20300
F4144       F  0.47471800  0.80318152  0.50215913    -0.23000
C4145       C  0.88132273  0.71484171  0.40195950    -0.05800
C4146       C  0.90651440  0.73515179  0.41634793     0.00100
C4147       C  0.89839334  0.75303641  0.43098732    -0.08500
C4148       C  0.86605060  0.75186376  0.42976143    -0.05800
C4149       C  0.84115262  0.73216747  0.41510180     0.00100
C4150       C  0.84853250  0.71280783  0.40111322    -0.08400
C4151       C  0.82240460  0.69084130  0.38505185     0.62000
H4152       H  0.88770955  0.70070415  0.39122465     0.12700
H4153       H  0.85962978  0.76594912  0.44053808     0.12700
C4154       C  0.92272086  0.77149694  0.44851280     0.62300
F4155       F  0.83628085  0.67707377  0.37180892    -0.22900
F4156       F  0.81209707  0.71076640  0.37406466    -0.20200
F4157       F  0.79363162  0.66361377  0.39398465    -0.19900
F4158       F  0.95288446  0.79986663  0.44169549    -0.20000
F4159       F  0.93093215  0.74893705  0.45831707    -0.20300
F4160       F  0.90761531  0.78302466  0.46238941    -0.23000
C4161       C  0.61976381  0.75959754  0.42881899    -0.05800
C4162       C  0.59524948  0.74086505  0.41375584     0.00100
C4163       C  0.60299731  0.72256478  0.39925748    -0.08500
C4164       C  0.63444061  0.72210327  0.40099704    -0.05800
C4165       C  0.65905189  0.74083646  0.41597287     0.00100
C4166       C  0.65175661  0.75989936  0.43021561    -0.08400
C4167       C  0.67669386  0.77896449  0.44738717     0.62000
H4168       H  0.61329661  0.77334982  0.43971187     0.12700
H4169       H  0.63998536  0.70738394  0.39073677     0.12700
C4170       C  0.57905346  0.70477918  0.38144397     0.62300
F4171       F  0.66280178  0.79259630  0.46071002    -0.15700
F4172       F  0.70727667  0.80598485  0.43991944    -0.20200
F4173       F  0.68401386  0.75642861  0.45796564    -0.19900
F4174       F  0.57127423  0.72774024  0.37173492    -0.20000
F4175       F  0.54860905  0.67633546  0.38789671    -0.20300
F4176       F  0.59435447  0.69347541  0.36756266    -0.23000
C4177       C  0.98316308  0.99116547  0.48720242    -0.05800
C4178       C  0.50993688  0.51834135  0.47736728     0.00100
C4179       C  0.54058789  0.53853708  0.48880251    -0.08500
C4180       C  0.53848083  0.53619116  0.50993975    -0.05800
C4181       C  0.50708416  0.51402138  0.51976280     0.00100
C4182       C  0.97944717  0.98882889  0.50820838    -0.08400
C4183       C  0.94368422  0.96579672  0.51726091     0.62000
H4184       H  0.96090119  0.97540682  0.47768370     0.12700
H4185       H  0.56157170  0.55124402  0.51901459     0.12700
C4186       C  0.57552090  0.56130749  0.47880481     0.62300
F4187       F  0.91786067  0.95221951  0.50266918    -0.22900
F4188       F  0.93570132  0.98482167  0.53037467    -0.20200
F4189       F  0.94320885  0.93841080  0.52748248    -0.19900
F4190       F  0.57487363  0.58812925  0.46855956    -0.20000
F4191       F  0.58258756  0.54190262  0.46546048    -0.20300
F4192       F  0.60246370  0.57562128  0.49269564    -0.23000
C4193       C  0.88566567  0.48816939  0.40715342    -0.05800
C4194       C  0.91350747  0.51501507  0.41768295     0.00100
C4195       C  0.91587171  0.03651777  0.42827525    -0.08500
C4196       C  0.88274487  0.03369774  0.42805861    -0.05800
C4197       C  0.84701455  0.50961907  0.41696115     0.00100
C4198       C  0.85237126  0.48490114  0.40657842    -0.08400
C4199       C  0.82364208  0.45568214  0.39447003     0.62000
H4200       H  0.89031819  0.46980873  0.39922450     0.12700
H4201       H  0.87860184  0.05254073  0.43619038     0.12700
C4202       C  0.94517838  0.06549240  0.44020930     0.62300
F4203       F  0.84232132  0.93655480  0.38283111    -0.22900
F4204       F  0.81614849  0.96847906  0.38150892    -0.20200
F4205       F  0.79790214  0.43263642  0.40723969    -0.19900
F4206       F  0.93347328  0.08360737  0.45155965    -0.20000
F4207       F  0.96247815  0.59157965  0.42910704    -0.20300
F4208       F  0.95003508  0.55298154  0.45437828    -0.23000
C4209       C  0.65783935  0.53292346  0.40276244    -0.05800
C4210       C  0.66095552  0.51004798  0.41615901     0.00100
C4211       C  0.64192268  0.98930255  0.43220264    -0.08500
C4212       C  0.61092937  0.99078008  0.43097692    -0.05800
C4213       C  0.59951259  0.51458809  0.41481452     0.00100
C4214       C  0.62730689  0.53527413  0.40161015    -0.08400
C4215       C  0.62440252  0.55865081  0.38584720     0.62000
H4216       H  0.67952765  0.54871073  0.39294560     0.12700
H4217       H  0.59085574  0.97777479  0.44220156     0.12700
C4218       C  0.64760940  0.97043692  0.44967617     0.62300
F4219       F  0.65230436  0.57226147  0.37273032    -0.22900
F4220       F  0.62363468  0.58597800  0.39508744    -0.20200
F4221       F  0.59431975  0.54001982  0.37460770    -0.19900
F4222       F  0.67884864  0.99221873  0.45918455    -0.20000
F4223       F  0.64827831  0.94158493  0.44271955    -0.20300
F4224       F  0.62139055  0.95954275  0.46381649    -0.23000
C4225       C  0.76269724  0.73565787  0.17536736    -0.05800
C4226       C  0.73773574  0.74027117  0.18572102     0.00100
C4227       C  0.71194712  0.74342869  0.17452577    -0.08500
C4228       C  0.71268854  0.74249679  0.15334203    -0.05800
C4229       C  0.73792053  0.73827423  0.14300519     0.00100
C4230       C  0.76294461  0.73392940  0.15422981    -0.08400
C4231       C  0.78914145  0.72632131  0.14416194     0.62000
H4232       H  0.78212366  0.73314111  0.18407014     0.12700
H4233       H  0.69356999  0.74545501  0.14458743     0.12700
C4234       C  0.68427486  0.74869334  0.18468956     0.62300
F4235       F  0.80650384  0.71684903  0.15800021    -0.22900
F4236       F  0.81372880  0.75542008  0.13406833    -0.20200
F4237       F  0.77222645  0.69929731  0.13073934    -0.19900
F4238       F  0.69979837  0.77638640  0.19777446    -0.20000
F4239       F  0.66166171  0.71910165  0.19518913    -0.20300
F4240       F  0.66480607  0.75554218  0.17090954    -0.23000
C4241       C  0.72185629  0.71867236  0.32017674    -0.05800
C4242       C  0.75253447  0.74267681  0.31026616     0.00100
C4243       C  0.78272861  0.76379548  0.32208680    -0.08500
C4244       C  0.78014326  0.76121890  0.34324833    -0.05800
C4245       C  0.74930344  0.73748118  0.35298765     0.00100
C4246       C  0.71971813  0.71530048  0.34121993    -0.08400
C4247       C  0.68548896  0.68888384  0.35065837     0.62000
H4248       H  0.69919372  0.70195121  0.31122035     0.12700
H4249       H  0.80262000  0.77743768  0.35249462     0.12700
C4250       C  0.81766364  0.78886697  0.31279038     0.62300
F4251       F  0.67537234  0.70515527  0.36441563    -0.22900
F4252       F  0.68931415  0.66321640  0.36015463    -0.20200
F4253       F  0.65902762  0.67313143  0.33656195    -0.19900
F4254       F  0.81437208  0.81256334  0.30079579    -0.20000
F4255       F  0.82936762  0.77079831  0.30143605    -0.20300
F4256       F  0.84283177  0.80720237  0.32720971    -0.23000
C4257       C  0.76999560  0.89903132  0.25335055    -0.05800
C4258       C  0.73733795  0.89702414  0.25139721     0.00100
C4259       C  0.70723738  0.86373889  0.24907311    -0.08500
C4260       C  0.71151876  0.83442547  0.24805348    -0.05800
C4261       C  0.74423189  0.83646686  0.24983780     0.00100
C4262       C  0.77413787  0.86961297  0.25293065    -0.08400
C4263       C  0.81040261  0.87456607  0.25625339     0.62000
H4264       H  0.79274304  0.92424829  0.25539156     0.12700
H4265       H  0.68880548  0.80923037  0.24588356     0.12700
C4266       C  0.67050541  0.85841452  0.24771983     0.62300
F4267       F  0.83475345  0.90858044  0.26058869    -0.22900
F4268       F  0.82135427  0.86536558  0.23912590    -0.20200
F4269       F  0.80996708  0.85453111  0.27234690    -0.19900
F4270       F  0.66784056  0.87650834  0.23143456    -0.20000
F4271       F  0.66269037  0.86958412  0.26527353    -0.20300
F4272       F  0.64559184  0.82394209  0.24524058    -0.23000
C4273       C  0.72767481  0.62727871  0.26291278    -0.05800
C4274       C  0.74665218  0.65136306  0.24777925     0.00100
C4275       C  0.76515477  0.64328489  0.23348881    -0.08500
C4276       C  0.76426541  0.61128270  0.23502595    -0.05800
C4277       C  0.74501025  0.58708010  0.25001516     0.00100
C4278       C  0.72666220  0.59521302  0.26441474    -0.08400
C4279       C  0.70713886  0.57080770  0.28170869     0.62000
H4280       H  0.71381826  0.63399909  0.27371791     0.12700
H4281       H  0.77803294  0.60450554  0.22419515     0.12700
C4282       C  0.78427753  0.66749212  0.21610090     0.62300
F4283       F  0.69507468  0.58577401  0.29532609    -0.22900
F4284       F  0.72902667  0.56203383  0.29194719    -0.20200
F4285       F  0.67871186  0.54113977  0.27444711    -0.19900
F4286       F  0.81238438  0.69755382  0.22323047    -0.20000
F4287       F  0.76185456  0.67546313  0.20580988    -0.20300
F4288       F  0.79669884  0.65269470  0.20260845    -0.23000
C4289       C  0.74755939  0.97498854  0.15738346    -0.05800
C4290       C  0.73856029  0.49155796  0.14540079     0.00100
C4291       C  0.71716001  0.50067518  0.15659250    -0.08500
C4292       C  0.71851241  0.49989729  0.17777358    -0.05800
C4293       C  0.73010466  0.98627735  0.18974609     0.00100
C4294       C  0.74876015  0.97391430  0.17849832    -0.08400
C4295       C  0.76965430  0.95934770  0.18868650     0.62000
H4296       H  0.76182673  0.96585253  0.14854222     0.12700
H4297       H  0.70271384  0.50721451  0.18658768     0.12700
C4298       C  0.69377449  0.51214303  0.14629875     0.62300
F4299       F  0.78096861  0.94373771  0.17505538    -0.22900
F4300       F  0.74935156  0.93471962  0.20284231    -0.20200
F4301       F  0.81103299  0.49381726  0.19675054    -0.19900
F4302       F  0.66404079  0.99336743  0.13664527    -0.20000
F4303       F  0.71300765  0.53886090  0.13297024    -0.20300
F4304       F  0.67850507  0.52381248  0.15996375    -0.23000
C4305       C  0.72686310  0.97353460  0.34778275    -0.05800
C4306       C  0.75169883  0.50590253  0.35447103     0.00100
C4307       C  0.77619142  0.53249424  0.34168260    -0.08500
C4308       C  0.77232822  0.52760653  0.32072262    -0.05800
C4309       C  0.74499314  0.99464568  0.31370401     0.00100
C4310       C  0.72078244  0.96892813  0.32694384    -0.08400
C4311       C  0.68895144  0.93635456  0.31935841     0.62000
H4312       H  0.70819821  0.95440191  0.35801791     0.12700
H4313       H  0.79030977  0.54784481  0.31073970     0.12700
C4314       C  0.80678363  0.56557328  0.34980888     0.62300
F4315       F  0.67181066  0.91294750  0.33473848    -0.22900
F4316       F  0.69883169  0.92003611  0.30537535    -0.20200
F4317       F  0.66848674  0.44017115  0.30659031    -0.19900
F4318       F  0.83133897  0.04926439  0.36335012    -0.20000
F4319       F  0.79482254  0.58534388  0.35910896    -0.20300
F4320       F  0.82935015  0.58557365  0.33469789    -0.23000
C4321       C  0.53866448  0.75802615  0.17512455    -0.05800
C4322       C  0.01479323  0.76289633  0.18594107     0.00100
C4323       C  0.99043701  0.76795010  0.17449448    -0.08500
C4324       C  0.99208247  0.76766581  0.15342511    -0.05800
C4325       C  0.01701338  0.76263600  0.14340599     0.00100
C4326       C  0.53957566  0.75693510  0.15396267    -0.08400
C4327       C  0.56708140  0.75113092  0.14399386     0.62000
H4328       H  0.55795598  0.75552901  0.18398223     0.12700
H4329       H  0.97358989  0.77135220  0.14449216     0.12700
C4330       C  0.96312189  0.77428872  0.18424826     0.62300
F4331       F  0.58587702  0.74363479  0.15791594    -0.22900
F4332       F  0.59030687  0.78061443  0.13363343    -0.20200
F4333       F  0.55146243  0.72358066  0.13082211    -0.19900
F4334       F  0.97870446  0.80059177  0.19822288    -0.20000
F4335       F  0.93831839  0.74435289  0.19359536    -0.20300
F4336       F  0.94610666  0.78396387  0.17029181    -0.23000
C4337       C  0.48181626  0.72656993  0.31818576    -0.05800
C4338       C  0.01214339  0.75425892  0.31019383     0.00100
C4339       C  0.03928403  0.77729258  0.32326244    -0.08500
C4340       C  0.03439425  0.77229763  0.34419673    -0.05800
C4341       C  0.00420966  0.74464676  0.35254528     0.00100
C4342       C  0.47719365  0.72065041  0.33905431    -0.08400
C4343       C  0.44298947  0.69130245  0.34690358     0.62000
H4344       H  0.46092487  0.70986152  0.30811419     0.12700
H4345       H  0.05473906  0.78970978  0.35434909     0.12700
C4346       C  0.07329910  0.80707794  0.31545331     0.62300
F4347       F  0.41853189  0.67585832  0.33171740    -0.22900
F4348       F  0.42920887  0.70375674  0.36101354    -0.20200
F4349       F  0.44856409  0.66613383  0.35559885    -0.19900
F4350       F  0.06661755  0.82779011  0.30267018    -0.20000
F4351       F  0.09155124  0.79414909  0.30531156    -0.20300
F4352       F  0.09445650  0.82776258  0.33086563    -0.23000
C4353       C  0.98724640  0.85419622  0.25815062    -0.05800
C4354       C  0.01582099  0.85416361  0.24905584     0.00100
C4355       C  0.54213816  0.88513024  0.23985688    -0.08500
C4356       C  0.53899886  0.91509581  0.24103603    -0.05800
C4357       C  0.01035626  0.91520556  0.25015039     0.00100
C4358       C  0.98386378  0.88400509  0.25888591    -0.08400
C4359       C  0.95237017  0.88185790  0.26933050     0.62000
H4360       H  0.96728313  0.83033542  0.26480704     0.12700
H4361       H  0.55812363  0.93869644  0.23372472     0.12700
C4362       C  0.57195529  0.88647221  0.22791315     0.62300
F4363       F  0.93240233  0.85025021  0.27880967    -0.22900
F4364       F  0.93129637  0.88591587  0.25538228    -0.20200
F4365       F  0.96314742  0.90734527  0.28380906    -0.19900
F4366       F  0.55901379  0.86053661  0.21362703    -0.20000
F4367       F  0.59441270  0.88233368  0.24072092    -0.20300
F4368       F  0.59103219  0.91776271  0.21795084    -0.23000
C4369       C  0.98337403  0.60391494  0.25406467    -0.05800
C4370       C  0.01268212  0.60262262  0.24726721     0.00100
C4371       C  0.53952346  0.63210303  0.23782407    -0.08500
C4372       C  0.53845766  0.66324005  0.23823690    -0.05800
C4373       C  0.01115198  0.66579040  0.24733233     0.00100
C4374       C  0.98197282  0.63475563  0.25441011    -0.08400
C4375       C  0.94956854  0.63371002  0.26284935     0.62000
H4376       H  0.96128650  0.58025951  0.25945338     0.12700
H4377       H  0.55979317  0.68657196  0.23192723     0.12700
C4378       C  0.57074427  0.63214661  0.22833169     0.62300
F4379       F  0.92650934  0.60166238  0.27094358    -0.22900
F4380       F  0.93217104  0.64052279  0.24770236    -0.20200
F4381       F  0.95884225  0.65787163  0.27802374    -0.19900
F4382       F  0.55964447  0.60681566  0.21372793    -0.20000
F4383       F  0.58958604  0.62614731  0.24293750    -0.20300
F4384       F  0.59304199  0.66353858  0.21924862    -0.23000
C4385       C  0.98392209  0.98072341  0.15439586    -0.05800
C4386       C  0.00592023  0.50529924  0.14560414     0.00100
C4387       C  0.53220456  0.52996568  0.15571610    -0.08500
C4388       C  0.53061370  0.52756675  0.17683952    -0.05800
C4389       C  0.00362323  0.50213590  0.18832303     0.00100
C4390       C  0.98123478  0.97876037  0.17549801    -0.08400
C4391       C  0.94932922  0.94859674  0.18502308     0.62000
H4392       H  0.96268416  0.96159705  0.14537507     0.12700
H4393       H  0.55182637  0.54703708  0.18572133     0.12700
C4394       C  0.56338068  0.56058382  0.14598318     0.62300
F4395       F  0.92855971  0.92409857  0.17093614    -0.22900
F4396       F  0.92927608  0.96041404  0.19419345    -0.20200
F4397       F  0.45701642  0.93152181  0.19941238    -0.19900
F4398       F  0.05513586  0.57825404  0.13422451    -0.20000
F4399       F  0.58286317  0.54925226  0.13568798    -0.20300
F4400       F  0.58503959  0.58455484  0.16005519    -0.23000
C4401       C  0.98797223  0.97990506  0.32138463    -0.05800
C4402       C  0.50549474  0.51086833  0.31074541     0.00100
C4403       C  0.52275190  0.54214787  0.32158674    -0.08500
C4404       C  0.52119048  0.54071869  0.34270836    -0.05800
C4405       C  0.50242955  0.50919249  0.35331185     0.00100
C4406       C  0.98681715  0.97777543  0.34252720    -0.08400
C4407       C  0.96116776  0.94348239  0.35230159     0.62000
H4408       H  0.97137863  0.95726687  0.31248395     0.12700
H4409       H  0.53494384  0.56458701  0.35107935     0.12700
C4410       C  0.54160412  0.57691883  0.31087088     0.62300
F4411       F  0.94004253  0.91907334  0.33826601    -0.22900
F4412       F  0.94119140  0.44106474  0.36482419    -0.20200
F4413       F  0.97906210  0.93004594  0.36265759    -0.19900
F4414       F  0.51927389  0.57973279  0.29727845    -0.20000
F4415       F  0.58299202  0.07363133  0.30269406    -0.20300
F4416       F  0.55328831  0.60429849  0.32416464    -0.23000
loop_ 
_geom_bond_atom_site_label_1 
_geom_bond_atom_site_label_2 
_geom_bond_distance 
_geom_bond_site_symmetry_2 
_ccdc_geom_bond_type 
O1           Cu9   1.998       .  S
O1         C1115   1.274       .  A
O2           Cu9   1.997       .  S
O2         C2220   1.276       .  A
O3        Cu1113   2.015   1_545  S
O3         C2221   1.279       .  A
O4           Cu9   2.022       .  S
O4         C2222   1.278       .  A
O5        Cu1114   2.002       .  S
O5           C14   1.279       .  A
O6          Cu10   2.016       .  S
O6           C13   1.277       .  A
O7          Cu10   2.003       .  S
O7         C1116   1.276       .  A
O8          Cu10   2.003       .  S
O8         C2219   1.278       .  A
Cu9        O1107   2.019       .  S
Cu9       Cu3322   2.365       .  S
Cu10       O1109   2.015   1_545  S
Cu10      Cu3321   2.365   1_445  S
C11        O1105   1.276   1_545  A
C11        O2216   1.278       .  A
C11        C1077   1.491       .  S
C12        O2210   1.275   1_455  A
C12        O1111   1.277       .  A
C12        C2194   1.471       .  S
C13        O2211   1.279   1_455  A
C13        C3266   1.494       .  S
C14        O2212   1.277   1_455  A
C14        C3253   1.500       .  S
O15         Cu23   2.008       .  S
O15          C25   1.279       .  A
O16         Cu23   2.004       .  S
O16          C26   1.276       .  A
O17         Cu23   2.015       .  S
O17          C27   1.277       .  A
O18         Cu23   2.014       .  S
O18          C28   1.279       .  A
O19         Cu24   2.011       .  S
O19        C2236   1.276       .  A
O20         Cu24   2.009       .  S
O20        C2235   1.278       .  A
O21         Cu24   2.014       .  S
O21        C2234   1.279       .  A
O22         Cu24   2.012       .  S
O22        C2233   1.277       .  A
Cu23      Cu2232   2.362       .  S
Cu24      Cu2231   2.362   1_455  S
C25        O2230   1.276       .  A
C25        C1026   1.495       .  S
C26        O2229   1.278       .  A
C26        C1010   1.482       .  S
C27        O2228   1.279       .  A
C27        C1061   1.493       .  S
C28        O2227   1.277       .  A
C28        C1042   1.501       .  S
O29         Cu37   2.021       .  S
O29          C39   1.279       .  A
O30         Cu37   2.009       .  S
O30          C40   1.277       .  A
O31       Cu1141   2.001   1_545  S
O31          C41   1.275       .  A
O32         Cu37   2.006       .  S
O32          C42   1.275       .  A
O33       Cu1142   2.024       .  S
O33          C42   1.281       .  A
O34         Cu38   2.014       .  S
O34          C41   1.280       .  A
O35         Cu38   1.999       .  S
O35        C1144   1.276   1_545  A
O36         Cu38   1.998   1_565  S
O36        C1143   1.275       .  A
Cu37       O1135   2.004       .  S
Cu37      Cu1142   2.368       .  S
Cu38       O1137   2.020   1_545  S
Cu38      Cu1141   2.366   1_545  S
C39        O1140   1.276       .  A
C39         C981   1.484       .  S
C40        O1139   1.277       .  A
C40         C997   1.481       .  S
C41         C965   1.487       .  S
C42         C946   1.500       .  S
O43         Cu51   2.005       .  S
O43          C53   1.276       .  A
O44         Cu51   2.010       .  S
O44          C54   1.276       .  A
O45         Cu51   2.020       .  S
O45          C55   1.280       .  A
O46         Cu51   2.024       .  S
O46          C56   1.281       .  A
O47         Cu52   2.004       .  S
O47          C56   1.275       .  A
O48         Cu52   1.999       .  S
O48          C55   1.275       .  A
O49         Cu52   2.012       .  S
O49          C54   1.279       .  A
O50         Cu52   2.012       .  S
O50          C53   1.277       .  A
Cu51        Cu52   2.368       .  S
C53         C930   1.470       .  S
C54         C914   1.487       .  S
C55         C962   1.487       .  S
C56         C949   1.498       .  S
O57       Cu2273   2.002       .  S
O57          C67   1.275       .  A
O58         Cu65   2.006       .  S
O58          C68   1.276       .  A
O59         Cu65   2.011       .  S
O59          C69   1.280       .  A
O60         Cu65   2.014       .  S
O60          C70   1.278       .  A
O61         Cu66   1.999       .  S
O61        C3382   1.277       .  A
O62         Cu66   2.001       .  S
O62        C3381   1.275       .  A
O63       Cu2274   1.999   1_455  S
O63        C1172   1.277       .  A
O64         Cu66   2.004       .  S
O64        C1171   1.277       .  A
Cu65       O2265   2.005   1_455  S
Cu65      Cu3378   2.368   1_445  S
Cu66       O2271   2.002       .  S
Cu66      Cu3377   2.367       .  S
C67        O1168   1.279   1_545  A
C67         C882   1.479       .  S
C68        O1167   1.278   1_545  A
C68         C901   1.474       .  S
C69        O3374   1.275   1_445  A
C69        C1093   1.495       .  S
C70        O3373   1.277   1_545  A
C70         C866   1.479       .  S
O71         Cu79   2.008       .  S
O71          C81   1.278       .  A
O72       Cu2287   2.003   1_455  S
O72          C82   1.276       .  A
O73         Cu79   2.031       .  S
O73          C83   1.280       .  A
O74         Cu79   2.025       .  S
O74          C84   1.279       .  A
O75         Cu80   1.996       .  S
O75        C2292   1.277   1_455  A
O76         Cu80   2.001       .  S
O76        C2291   1.276   1_455  A
O77         Cu80   2.004       .  S
O77          C82   1.278       .  A
O78       Cu2288   2.004       .  S
O78          C81   1.276       .  A
Cu79       O2280   2.003       .  S
Cu79      Cu2288   2.370       .  S
Cu80       O2286   2.004   1_455  S
Cu80      Cu2287   2.370   1_455  S
C81         C834   1.482       .  S
C82         C850   1.481       .  S
C83        O2284   1.276       .  A
C83         C821   1.484       .  S
C84        O2283   1.276       .  A
C84        C1029   1.484       .  S
O85         Cu93   1.997       .  S
O85        C1199   1.278       .  A
O86         Cu93   1.998       .  S
O86        C1200   1.275       .  A
O87         Cu93   2.002       .  S
O87        C1201   1.276       .  A
O88         Cu93   2.003       .  S
O88        C1202   1.276       .  A
O89         Cu94   2.011       .  S
O89          C98   1.278       .  A
O90         Cu94   2.007       .  S
O90          C97   1.277       .  A
O91         Cu94   2.032       .  S
O91          C96   1.281       .  A
O92         Cu94   2.025       .  S
O92          C95   1.279       .  A
Cu93      Cu1198   2.366       .  S
Cu94      Cu1197   2.367   1_545  S
C95        O1189   1.278   1_545  A
C95         C994   1.499       .  S
C96        O1190   1.275   1_545  A
C96         C805   1.496       .  S
C97        O1191   1.277   1_545  A
C97         C898   1.474       .  S
C98        O1192   1.277   1_545  A
C98         C885   1.480       .  S
O99        Cu107   2.013       .  S
O99         C109   1.280       .  A
O100       Cu107   2.015       .  S
O100        C110   1.278       .  A
O101       Cu107   1.997       .  S
O101        C111   1.277       .  A
O102       Cu107   1.999       .  S
O102        C112   1.275       .  A
O103       Cu108   2.007       .  S
O103        C112   1.279       .  A
O104       Cu108   2.010       .  S
O104        C111   1.277       .  A
O105       Cu108   2.008       .  S
O105        C110   1.278       .  A
O106       Cu108   2.006       .  S
O106        C109   1.276       .  A
Cu107      Cu108   2.367       .  S
C109        C933   1.490       .  S
C110        C786   1.486       .  S
C111        C853   1.483       .  S
C112        C837   1.482       .  S
O113      Cu1225   2.004       .  S
O113       C2331   1.278   1_455  A
O114       Cu121   2.018       .  S
O114       C2332   1.278       .  A
O115       Cu121   2.008       .  S
O115       C2333   1.276       .  A
O116       Cu121   2.011       .  S
O116       C2334   1.276       .  A
O117       Cu122   2.013       .  S
O117       C1230   1.278       .  A
O118       Cu122   2.012       .  S
O118       C1229   1.279       .  A
O119      Cu1226   2.016   1_545  S
O119        C124   1.279       .  A
O120       Cu122   2.023       .  S
O120        C123   1.278       .  A
Cu121      O1217   2.019   1_545  S
Cu121     Cu3434   2.359   1_445  S
Cu122      O1223   2.018       .  S
Cu122     Cu3433   2.367       .  S
C123       O2321   1.278       .  A
C123        C741   1.492       .  S
C124       O2322   1.278       .  A
C124        C757   1.494       .  S
C125       O2323   1.275       .  A
C125       O1222   1.279   1_545  A
C125       C1074   1.492       .  S
C126       O2324   1.275       .  A
C126       O1221   1.280   1_545  A
C126       C2981   1.502       .  S
O127       Cu135   2.014       .  S
O127       C2345   1.279       .  A
O128       Cu135   2.015       .  S
O128       C2346   1.277       .  A
O129       Cu135   2.008       .  S
O129       C2347   1.276       .  A
O130       Cu135   2.007       .  S
O130       C2348   1.279       .  A
O131       Cu136   2.015       .  S
O131        C140   1.277       .  A
O132       Cu136   2.014       .  S
O132        C139   1.279       .  A
O133       Cu136   2.022       .  S
O133        C138   1.280       .  A
O134       Cu136   2.022       .  S
O134        C137   1.278       .  A
Cu135     Cu2344   2.365   1_455  S
Cu136     Cu2343   2.365       .  S
C137       O2335   1.279       .  A
C137        C754   1.493       .  S
C138       O2336   1.277       .  A
C138        C738   1.494       .  S
C139       O2337   1.276       .  A
C139       C1013   1.483       .  S
C140       O2338   1.279       .  A
C140        C722   1.492       .  S
O141       Cu149   2.017       .  S
O141       C1255   1.280       .  A
O142       Cu149   2.020       .  S
O142       C1256   1.278       .  A
O143      Cu1253   2.017   1_545  S
O143        C153   1.279       .  A
O144       Cu149   2.007       .  S
O144        C154   1.276       .  A
O145      Cu1254   2.022       .  S
O145        C154   1.279       .  A
O146       Cu150   2.015       .  S
O146        C153   1.277       .  A
O147       Cu150   2.011       .  S
O147        C152   1.278   1_545  A
O148       Cu150   2.008       .  S
O148        C151   1.276   1_545  A
Cu149      O1247   2.014       .  S
Cu149     Cu1254   2.366       .  S
Cu150      O1249   2.011   1_545  S
Cu150     Cu1253   2.368   1_545  S
C151       O1245   1.280       .  A
C151        C706   1.489       .  S
C152       O1246   1.278       .  A
C152        C978   1.481       .  S
C153        C693   1.489       .  S
C154        C677   1.483       .  S
O155       Cu163   2.019       .  S
O155        C165   1.280       .  A
O156       Cu163   2.016       .  S
O156        C166   1.278       .  A
O157       Cu163   2.005       .  S
O157        C167   1.276       .  A
O158       Cu163   2.012       .  S
O158        C168   1.276       .  A
O159       Cu164   2.014       .  S
O159        C168   1.280       .  A
O160       Cu164   2.014       .  S
O160        C167   1.279       .  A
O161       Cu164   2.009       .  S
O161        C166   1.278       .  A
O162       Cu164   2.012       .  S
O162        C165   1.277       .  A
Cu163      Cu164   2.367       .  S
C165        C690   1.490       .  S
C166        C674   1.482       .  S
C167        C917   1.485       .  S
C168        C661   1.495       .  S
O169      Cu2385   2.020   1_455  S
O169        C179   1.280       .  A
O170      Cu1281   2.016       .  S
O170        C180   1.278       .  A
O171       Cu177   2.018       .  S
O171       C2389   1.278       .  A
O172       Cu177   2.019       .  S
O172       C2390   1.278       .  A
O173       Cu178   2.009       .  S
O173       C1286   1.279   1_455  A
O174       Cu178   2.010       .  S
O174       C1285   1.279   1_455  A
O175      Cu2386   2.007       .  S
O175        C180   1.276       .  A
O176      Cu1282   2.013   1_545  S
O176        C179   1.277       .  A
Cu177      O2377   2.024       .  S
Cu177      O1274   2.017   1_545  S
Cu177     Cu3490   2.366   1_545  S
Cu178      O2383   2.006   1_455  S
Cu178      O1280   2.010       .  S
Cu178     Cu3489   2.363   1_455  S
C179        C626   1.500       .  S
C180        C610   1.479       .  S
C181       O2379   1.278       .  A
C181       O1278   1.277   1_645  A
C181        C770   1.484       .  S
C182       O2380   1.278       .  A
C182       O1277   1.277   1_645  A
C182        C642   1.482       .  S
O183       Cu191   2.020       .  S
O183       C2401   1.278       .  A
O184       Cu191   2.018       .  S
O184       C2402   1.278       .  A
O185       Cu191   2.026       .  S
O185        C195   1.281       .  A
O186      Cu2399   2.035       .  S
O186        C196   1.280       .  A
O187       Cu192   2.003       .  S
O187        C196   1.277       .  A
O188      Cu2400   2.001   1_455  S
O188        C195   1.275       .  A
O189       Cu192   2.015       .  S
O189        C194   1.279       .  A
O190       Cu192   2.014       .  S
O190        C193   1.279       .  A
Cu191      O2394   2.033   1_455  S
Cu191     Cu2400   2.366   1_455  S
Cu192      O2396   1.997       .  S
Cu192     Cu2399   2.366       .  S
C193       O2391   1.277       .  A
C193        C725   1.495       .  S
C194       O2392   1.278       .  A
C194        C594   1.489       .  S
C195        C578   1.485       .  S
C196        C565   1.495       .  S
O197       Cu205   2.017       .  S
O197       C1311   1.278       .  A
O198       Cu205   2.021       .  S
O198       C1312   1.280       .  A
O199       Cu205   2.006       .  S
O199        C209   1.276       .  A
O200      Cu1309   2.019   1_545  S
O200        C210   1.279       .  A
O201       Cu206   2.027       .  S
O201        C210   1.279       .  A
O202      Cu1310   2.025       .  S
O202        C209   1.280       .  A
O203       Cu206   2.007       .  S
O203        C208   1.275   1_545  A
O204       Cu206   2.009       .  S
O204        C207   1.278   1_545  A
Cu205      O1304   2.009       .  S
Cu205     Cu1310   2.365       .  S
Cu206      O1306   2.027   1_545  S
Cu206     Cu1309   2.364   1_545  S
C207       O1301   1.279       .  A
C207        C549   1.487       .  S
C208       O1302   1.282       .  A
C208        C709   1.500       .  S
C209        C581   1.487       .  S
C210        C562   1.496       .  S
O211       Cu219   2.024       .  S
O211        C221   1.279       .  A
O212       Cu219   2.020       .  S
O212        C222   1.279       .  A
O213       Cu219   2.010       .  S
O213        C223   1.276       .  A
O214       Cu219   2.008       .  S
O214        C224   1.277       .  A
O215       Cu220   2.014       .  S
O215        C224   1.278       .  A
O216       Cu220   2.015       .  S
O216        C223   1.280       .  A
O217       Cu220   2.000       .  S
O217        C222   1.276       .  A
O218       Cu220   2.007       .  S
O218        C221   1.278       .  A
Cu219      Cu220   2.366       .  S
C221        C658   1.494       .  S
C222        C530   1.487       .  S
C223        C629   1.496       .  S
C224        C613   1.479       .  S
O225       Cu233   2.007       .  S
O225        C235   1.278       .  A
O226       Cu233   2.006       .  S
O226        C236   1.277       .  A
O227      Cu2441   2.009       .  S
O227        C237   1.278       .  A
O228       Cu233   2.007       .  S
O228        C238   1.279       .  A
O229      Cu2442   2.001   1_455  S
O229       C1342   1.274       .  A
O230       Cu234   1.999       .  S
O230       C1341   1.276       .  A
O231       Cu234   2.005       .  S
O231       C3548   1.276       .  A
O232       Cu234   2.003       .  S
O232       C3547   1.276       .  A
Cu233      O2435   2.010   1_455  S
Cu233     Cu3546   2.371   1_445  S
Cu234      O2437   2.005       .  S
Cu234     Cu3545   2.367       .  S
C235       O3544   1.276   1_445  A
C235        C517   1.481       .  S
C236       O3543   1.277   1_445  A
C236        C869   1.480       .  S
C237       O1334   1.275   1_545  A
C237        C485   1.473       .  S
C238       O1333   1.275   1_545  A
C238        C498   1.486       .  S
O239       Cu247   2.003       .  S
O239        C249   1.279       .  A
O240      Cu2455   1.993   1_455  S
O240        C250   1.277       .  A
O241       Cu247   2.009       .  S
O241        C251   1.279       .  A
O242       Cu247   2.010       .  S
O242        C252   1.277       .  A
O243       Cu248   2.023       .  S
O243       C2460   1.279   1_455  A
O244       Cu248   2.028       .  S
O244       C2459   1.278       .  A
O245       Cu248   2.004       .  S
O245        C250   1.276       .  A
O246      Cu2456   2.007       .  S
O246        C249   1.275       .  A
Cu247      O2448   1.996       .  S
Cu247     Cu2456   2.366       .  S
Cu248      O2454   2.009   1_455  S
Cu248     Cu2455   2.366   1_455  S
C249        C437   1.498       .  S
C250        C450   1.478       .  S
C251       O2452   1.279       .  A
C251        C466   1.492       .  S
C252       O2451   1.279       .  A
C252        C818   1.483       .  S
O253       Cu261   2.005       .  S
O253       C1367   1.277       .  A
O254       Cu261   2.006       .  S
O254       C1368   1.280       .  A
O255       Cu261   2.010       .  S
O255       C1369   1.278       .  A
O256       Cu261   2.005       .  S
O256       C1370   1.276       .  A
O257       Cu262   2.024       .  S
O257        C266   1.279       .  A
O258       Cu262   2.018       .  S
O258        C265   1.277       .  A
O259       Cu262   2.009       .  S
O259        C264   1.276       .  A
O260       Cu262   1.998       .  S
O260        C263   1.276       .  A
Cu261     Cu1366   2.370       .  S
Cu262     Cu1365   2.369   1_545  S
C263       O1357   1.277   1_545  A
C263        C482   1.470       .  S
C264       O1358   1.278   1_545  A
C264        C501   1.489       .  S
C265       O1359   1.280   1_545  A
C265        C802   1.497       .  S
C266       O1360   1.278   1_545  A
C266        C421   1.484       .  S
O267       Cu275   2.024       .  S
O267        C277   1.280       .  A
O268       Cu275   2.025       .  S
O268        C278   1.281       .  A
O269       Cu275   2.002       .  S
O269        C279   1.276       .  A
O270       Cu275   2.007       .  S
O270        C280   1.276       .  A
O271       Cu276   1.999       .  S
O271        C280   1.278       .  A
O272       Cu276   1.998       .  S
O272        C279   1.277       .  A
O273       Cu276   1.998       .  S
O273        C278   1.274       .  A
O274       Cu276   2.001       .  S
O274        C277   1.275       .  A
Cu275      Cu276   2.362       .  S
C277        C789   1.485       .  S
C278        C402   1.501       .  S
C279        C453   1.478       .  S
C280        C434   1.497       .  S
O281       Cu289   2.006       .  S
O281       C2499   1.279   1_455  A
O282       Cu289   2.004       .  S
O282       C3604   1.276   1_455  A
O283      Cu2497   2.011       .  S
O283        C293   1.277       .  A
O284      Cu1393   2.019   1_545  S
O284        C294   1.278       .  A
O285      Cu2498   2.012   1_455  S
O285        C294   1.279       .  A
O286      Cu1394   2.020       .  S
O286        C293   1.280       .  A
O287       Cu290   2.015       .  S
O287        C292   1.278       .  A
O288       Cu290   2.010       .  S
O288       C1395   1.276       .  A
Cu289      O2491   2.011   1_455  S
Cu289      O1388   2.008       .  S
Cu289     Cu3602   2.364   1_455  S
Cu290      O2493   2.015       .  S
Cu290      O1390   2.013   1_545  S
Cu290     Cu3601   2.365   1_545  S
C291       O2489   1.279       .  A
C291       O1392   1.277       .  A
C291        C514   1.492       .  S
C292       O3594   1.277   1_545  A
C292        C645   1.480       .  S
C293        C370   1.489       .  S
C294        C386   1.494       .  S
O295      Cu2511   2.010       .  S
O295        C305   1.279       .  A
O296       Cu303   2.015       .  S
O296        C306   1.279       .  A
O297       Cu303   2.010       .  S
O297        C307   1.279       .  A
O298       Cu303   2.013       .  S
O298        C308   1.278       .  A
O299       Cu304   2.023       .  S
O299       C2516   1.279       .  A
O300       Cu304   2.026       .  S
O300       C2515   1.278       .  A
O301      Cu2512   2.021       .  S
O301        C306   1.278       .  A
O302       Cu304   2.020       .  S
O302        C305   1.278       .  A
Cu303      O2503   2.015       .  S
Cu303     Cu2512   2.362       .  S
Cu304      O2509   2.024   1_455  S
Cu304     Cu2511   2.366       .  S
C305        C354   1.500       .  S
C306        C338   1.493       .  S
C307       O2508   1.279       .  A
C307        C597   1.490       .  S
C308       O2507   1.279       .  A
C308        C469   1.498       .  S
O309       Cu317   2.018       .  S
O309        C319   1.278       .  A
O310      Cu1421   2.027       .  S
O310        C320   1.279       .  A
O311       Cu317   2.011       .  S
O311        C321   1.276   1_545  A
O312       Cu317   2.012       .  S
O312        C322   1.278   1_545  A
O313       Cu318   2.020       .  S
O313       C1426   1.278       .  A
O314       Cu318   2.024       .  S
O314       C1425   1.281       .  A
O315       Cu318   1.995       .  S
O315        C320   1.277       .  A
O316      Cu1422   2.021   1_545  S
O316        C319   1.280       .  A
Cu317      O1414   2.007   1_545  S
Cu317     Cu1422   2.364   1_545  S
Cu318      O1420   1.993       .  S
Cu318     Cu1421   2.364       .  S
C319        C341   1.496       .  S
C320        C357   1.500       .  S
C321       O1418   1.280       .  A
C321        C546   1.487       .  S
C322       O1417   1.279       .  A
C322        C418   1.485   1_565  S
O323       Cu331   2.010       .  S
O323        C333   1.279       .  A
O324       Cu331   2.011       .  S
O324        C334   1.277       .  A
O325       Cu331   2.028       .  S
O325        C335   1.281       .  A
O326       Cu331   2.020       .  S
O326        C336   1.280       .  A
O327       Cu332   2.010       .  S
O327        C336   1.277       .  A
O328       Cu332   2.011       .  S
O328        C335   1.277       .  A
O329       Cu332   2.014       .  S
O329        C334   1.278       .  A
O330       Cu332   2.018       .  S
O330        C333   1.277       .  A
Cu331      Cu332   2.366       .  S
C333        C533   1.491       .  S
C334        C405   1.480       .  S
C335        C373   1.494       .  S
C336        C389   1.494       .  S
C337        C338   1.405       .  A
C337        C342   1.409       .  A
C337        H344   1.083       .  S
C338        C339   1.421       .  A
C339        C340   1.412       .  A
C339        C346   1.521       .  S
C340        C341   1.408       .  A
C340        H345   1.083       .  S
C341        C342   1.423       .  A
C342        C343   1.521       .  S
C343        F347   1.385       .  S
C343        F348   1.383       .  S
C343        F349   1.383       .  S
C346        F350   1.384       .  S
C346        F351   1.382       .  S
C346        F352   1.385       .  S
C353        C354   1.410       .  A
C353        C358   1.410       .  A
C353        H360   1.082       .  S
C354        C355   1.423       .  A
C355        C356   1.409       .  A
C355        C362   1.523       .  S
C356        C357   1.410       .  A
C356        H361   1.082       .  S
C357        C358   1.421       .  A
C358        C359   1.521       .  S
C359        F363   1.385       .  S
C359        F364   1.384       .  S
C359        F365   1.383       .  S
C362        F366   1.383       .  S
C362        F367   1.382       .  S
C362        F368   1.385       .  S
C369        C370   1.403       .  A
C369        C374   1.409       .  A
C369        H376   1.083       .  S
C370        C371   1.421       .  A
C371        C372   1.411       .  A
C371        C378   1.520       .  S
C372        C373   1.406       .  A
C372        H377   1.083       .  S
C373        C374   1.423       .  A
C374        C375   1.519       .  S
C375        F379   1.385       .  S
C375        F380   1.383       .  S
C375        F381   1.381       .  S
C378        F382   1.384       .  S
C378        F383   1.382       .  S
C378        F384   1.385       .  S
C385        C386   1.406       .  A
C385        C390   1.408       .  A
C385        H392   1.082       .  S
C386        C387   1.422       .  A
C387        C388   1.411       .  A
C387        C394   1.521       .  S
C388        C389   1.407       .  A
C388        H393   1.083       .  S
C389        C390   1.422       .  A
C390        C391   1.521       .  S
C391        F395   1.385       .  S
C391        F396   1.383       .  S
C391        F397   1.384       .  S
C394        F398   1.384       .  S
C394        F399   1.382       .  S
C394        F400   1.385       .  S
C401        C402   1.412       .  A
C401        C406   1.409       .  A
C401        H408   1.082       .  S
C402        C403   1.430       .  A
C403        C404   1.407       .  A
C403        C410   1.523       .  S
C404        C405   1.397       .  A
C404        H409   1.079       .  S
C405        C406   1.414       .  A
C406        C407   1.519       .  S
C407        F411   1.384       .  S
C407        F412   1.384       .  S
C407        F413   1.382       .  S
C410        F414   1.384       .  S
C410        F415   1.383       .  S
C410        F416   1.385       .  S
C417        C418   1.404   1_565  A
C417        C422   1.409       .  A
C417        H424   1.083       .  S
C418       C1523   1.418       .  A
C419        C420   1.410       .  A
C419       C1522   1.423       .  A
C419        C426   1.519       .  S
C420       C1525   1.401       .  A
C420        H425   1.083       .  S
C421        C422   1.416   1_545  A
C421       C1524   1.405       .  A
C422        C423   1.518       .  S
C423        F429   1.382       .  S
C423       F1531   1.385       .  S
C423       F1532   1.382       .  S
C426        F430   1.383       .  S
C426       F1535   1.384       .  S
C426       F1536   1.385       .  S
F427       C1527   1.385       .  S
F428       C1527   1.383       .  S
F431       C1530   1.382       .  S
F432       C1530   1.385       .  S
C433        C434   1.409       .  A
C433        C438   1.407       .  A
C433        H440   1.081       .  S
C434        C435   1.424       .  A
C435        C436   1.406       .  A
C435        C442   1.524       .  S
C436        C437   1.408       .  A
C436        H441   1.081       .  S
C437        C438   1.424       .  A
C438        C439   1.524       .  S
C439        F443   1.385       .  S
C439        F444   1.383       .  S
C439        F445   1.383       .  S
C442        F446   1.383       .  S
C442        F447   1.383       .  S
C442        F448   1.385       .  S
C449        C450   1.403       .  A
C449        C454   1.403       .  A
C449        H456   1.083       .  S
C450        C451   1.418       .  A
C451        C452   1.405       .  A
C451        C458   1.520       .  S
C452        C453   1.404       .  A
C452        H457   1.083       .  S
C453        C454   1.419       .  A
C454        C455   1.521       .  S
C455        F459   1.385       .  S
C455        F460   1.384       .  S
C455        F461   1.382       .  S
C458        F462   1.383       .  S
C458        F463   1.384       .  S
C458        F464   1.385       .  S
C465        C466   1.405       .  A
C465        C470   1.408       .  A
C465        H472   1.083       .  S
C466       C2675   1.419       .  A
C467        C468   1.414       .  A
C467       C2674   1.429       .  A
C467        C474   1.521       .  S
C468       C2677   1.402       .  A
C468        H473   1.083       .  S
C469        C470   1.422       .  A
C469       C2676   1.410       .  A
C470        C471   1.521       .  S
C471        F475   1.385       .  S
C471        F476   1.384       .  S
C471        F477   1.383       .  S
C474        F478   1.383       .  S
C474        F479   1.384       .  S
C474        F480   1.385       .  S
C481        C486   1.404       .  A
C481       C1586   1.401       .  A
C481        H488   1.084       .  S
C482        C483   1.416       .  A
C482       C1585   1.400   1_545  A
C483        C484   1.405       .  A
C483        C490   1.520       .  S
C484        C485   1.402       .  A
C484        H489   1.084       .  S
C485       C1590   1.418   1_545  A
C486       C1589   1.416       .  A
C486        C487   1.519       .  S
C487        F491   1.385       .  S
C487        F492   1.383       .  S
C487        F493   1.382       .  S
C490        F494   1.382       .  S
C490        F495   1.383       .  S
C490        F496   1.384       .  S
C497        C498   1.406       .  A
C497        C502   1.408       .  A
C497        H504   1.083       .  S
C498       C1603   1.420   1_545  A
C499        C500   1.406       .  A
C499       C1602   1.425       .  A
C499        C506   1.524       .  S
C500       C1605   1.407       .  A
C500        H505   1.081       .  S
C501        C502   1.422       .  A
C501       C1604   1.406   1_545  A
C502        C503   1.521       .  S
C503        F507   1.385       .  S
C503        F508   1.383       .  S
C503        F509   1.382       .  S
C506        F510   1.383       .  S
C506        F511   1.382       .  S
C506        F512   1.385       .  S
C513        C518   1.409       .  A
C513       C3826   1.411   1_465  A
C513        H520   1.082       .  S
C514        C515   1.423       .  A
C514       C3825   1.406       .  A
C515        C516   1.408       .  A
C515        C522   1.521       .  S
C516       C3829   1.405       .  A
C516        H521   1.083       .  S
C517        C518   1.416   1_545  A
C517       C3828   1.400   1_455  A
C518        C519   1.521       .  S
C519        F523   1.385       .  S
C519        F524   1.384       .  S
C519       F1629   1.382   1_455  S
C522        F527   1.383       .  S
C522        F528   1.385       .  S
C522       F1630   1.383       .  S
F525       C1623   1.383   1_655  S
F526       C1626   1.384       .  S
C529        C530   1.405       .  A
C529        C534   1.411       .  A
C529        H536   1.083       .  S
C530        C531   1.421       .  A
C531        C532   1.406       .  A
C531        C538   1.522       .  S
C532        C533   1.405       .  A
C532        H537   1.083       .  S
C533        C534   1.422       .  A
C534        C535   1.519       .  S
C535        F539   1.385       .  S
C535        F540   1.383       .  S
C535        F541   1.383       .  S
C538        F542   1.384       .  S
C538        F543   1.383       .  S
C538        F544   1.385       .  S
C545        C546   1.404       .  A
C545        C550   1.410       .  A
C545        H552   1.083   1_565  S
C546       C1651   1.420       .  A
C547        C548   1.409       .  A
C547       C1650   1.421       .  A
C547        C554   1.521       .  S
C548       C1653   1.405       .  A
C548        H553   1.083       .  S
C549        C550   1.419       .  A
C549       C1652   1.404       .  A
C550        C551   1.518   1_565  S
C551        F555   1.385       .  S
C551        F556   1.381   1_545  S
C551        F557   1.383       .  S
C554        F558   1.384       .  S
C554        F559   1.383       .  S
C554        F560   1.385       .  S
C561        C562   1.409       .  A
C561        C566   1.413       .  A
C561        H568   1.083       .  S
C562        C563   1.421       .  A
C563        C564   1.409       .  A
C563        C570   1.520       .  S
C564        C565   1.407       .  A
C564        H569   1.083       .  S
C565        C566   1.420       .  A
C566        C567   1.520       .  S
C567        F571   1.385       .  S
C567        F572   1.382       .  S
C567        F573   1.384       .  S
C570        F574   1.383       .  S
C570        F575   1.383       .  S
C570        F576   1.385       .  S
C577        C578   1.403       .  A
C577        C582   1.408       .  A
C577        H584   1.083       .  S
C578        C579   1.421       .  A
C579        C580   1.409       .  A
C579        C586   1.521       .  S
C580        C581   1.404       .  A
C580        H585   1.081       .  S
C581        C582   1.420       .  A
C582        C583   1.520       .  S
C583        F587   1.385       .  S
C583        F588   1.382       .  S
C583        F589   1.384       .  S
C586        F590   1.384       .  S
C586        F591   1.382       .  S
C586        F592   1.385       .  S
C593        C598   1.414       .  A
C593       C2802   1.408       .  A
C593        H600   1.083       .  S
C594        C595   1.418       .  A
C594       C2801   1.408       .  A
C595        C596   1.405       .  A
C595        C602   1.520       .  S
C596        C597   1.404       .  A
C596        H601   1.083       .  S
C597       C2806   1.420       .  A
C598       C2805   1.421       .  A
C598        C599   1.518       .  S
C599        F603   1.385       .  S
C599        F604   1.382       .  S
C599        F605   1.382       .  S
C602        F606   1.382       .  S
C602        F607   1.384       .  S
C602        F608   1.384       .  S
C609        C610   1.402       .  A
C609        C614   1.407       .  A
C609        H616   1.082       .  S
C610        C611   1.418       .  A
C611        C612   1.408       .  A
C611        C618   1.519       .  S
C612        C613   1.403       .  A
C612        H617   1.083       .  S
C613        C614   1.418       .  A
C614        C615   1.520       .  S
C615        F619   1.385       .  S
C615        F620   1.382       .  S
C615        F621   1.384       .  S
C618        F622   1.383       .  S
C618        F623   1.382       .  S
C618        F624   1.385       .  S
C625        C626   1.408       .  A
C625        C630   1.411       .  A
C625        H632   1.082       .  S
C626        C627   1.425       .  A
C627        C628   1.409       .  A
C627        C634   1.521       .  S
C628        C629   1.405       .  A
C628        H633   1.082       .  S
C629        C630   1.424       .  A
C630        C631   1.523       .  S
C631        F635   1.385       .  S
C631        F636   1.384       .  S
C631        F637   1.383       .  S
C634        F638   1.384       .  S
C634        F639   1.383       .  S
C634        F640   1.385       .  S
C641        C642   1.403   1_455  A
C641        C646   1.407       .  A
C641        H648   1.084       .  S
C642       C3955   1.418       .  A
C643        C644   1.409       .  A
C643       C3954   1.421       .  A
C643        C650   1.519       .  S
C644       C1749   1.405       .  A
C644        H649   1.083       .  S
C645       C1748   1.404       .  A
C645       C2854   1.417       .  A
C646       C2853   1.418   1_455  A
C646        C647   1.520       .  S
C647        F651   1.385       .  S
C647        F652   1.384       .  S
C647        F653   1.382       .  S
C650        F654   1.382       .  S
C650        F655   1.382       .  S
C650        F656   1.384       .  S
C657        C658   1.407       .  A
C657        C662   1.411   1_556  A
C657        H664   1.082       .  S
C658        C659   1.420       .  A
C659        C660   1.408   1_556  A
C659        C666   1.520       .  S
C660        C661   1.407       .  A
C660        H665   1.082       .  S
C661        C662   1.423       .  A
C662        C663   1.522       .  S
C663        F667   1.385       .  S
C663        F668   1.384       .  S
C663        F669   1.383       .  S
C666        F670   1.383       .  S
C666        F671   1.383       .  S
C666        F672   1.384       .  S
C673        C674   1.403       .  A
C673        C678   1.407       .  A
C673        H680   1.083       .  S
C674        C675   1.418       .  A
C675        C676   1.410       .  A
C675        C682   1.519       .  S
C676        C677   1.405       .  A
C676        H681   1.083       .  S
C677        C678   1.419       .  A
C678        C679   1.520       .  S
C679        F683   1.385       .  S
C679        F684   1.384       .  S
C679        F685   1.382       .  S
C682        F686   1.382       .  S
C682        F687   1.384       .  S
C682        F688   1.385       .  S
C689        C690   1.405       .  A
C689        C694   1.409       .  A
C689        H696   1.083       .  S
C690        C691   1.422       .  A
C691        C692   1.409       .  A
C691        C698   1.521       .  S
C692        C693   1.404       .  A
C692        H697   1.083       .  S
C693        C694   1.420       .  A
C694        C695   1.520       .  S
C695        F699   1.385       .  S
C695        F700   1.384       .  S
C695        F701   1.382       .  S
C698        F702   1.383       .  S
C698        F703   1.383       .  S
C698        F704   1.385       .  S
C705        C710   1.407   1_554  A
C705       C1810   1.406       .  A
C705        H712   1.082       .  S
C706        C707   1.420       .  A
C706       C1809   1.402       .  A
C707        C708   1.409   1_554  A
C707        C714   1.521       .  S
C708        C709   1.408       .  A
C708        H713   1.082       .  S
C709       C1814   1.427       .  A
C710       C1813   1.421       .  A
C710        C711   1.520       .  S
C711        F715   1.385       .  S
C711        F716   1.382       .  S
C711        F717   1.382       .  S
C714        F718   1.384       .  S
C714        F719   1.382   1_565  S
C714        F720   1.385       .  S
C721        C726   1.408   1_554  A
C721       C2930   1.406       .  A
C721        H728   1.083       .  S
C722        C723   1.421       .  A
C722       C2929   1.405       .  A
C723        C724   1.411   1_554  A
C723        C730   1.521       .  S
C724        C725   1.408       .  A
C724        H729   1.083       .  S
C725       C2934   1.423       .  A
C726       C2933   1.423       .  A
C726        C727   1.521       .  S
C727        F731   1.385   1_556  S
C727        F732   1.383       .  S
C727        F733   1.383       .  S
C730        F734   1.384       .  S
C730        F735   1.383       .  S
C730        F736   1.385       .  S
C737        C738   1.407       .  A
C737        C742   1.411       .  A
C737        H744   1.083       .  S
C738       C2947   1.423       .  A
C739        C740   1.408       .  A
C739       C2946   1.423       .  A
C739        C746   1.521       .  S
C740       C2949   1.405   1_455  A
C740        H745   1.083       .  S
C741        C742   1.420       .  A
C741       C2948   1.405       .  A
C742        C743   1.520       .  S
C743        F747   1.385       .  S
C743        F748   1.384       .  S
C743        F749   1.383       .  S
C746        F750   1.383       .  S
C746        F751   1.383       .  S
C746        F752   1.385       .  S
C753        C758   1.410       .  A
C753       C2962   1.406       .  A
C753        H760   1.083       .  S
C754        C755   1.421       .  A
C754       C2961   1.406       .  A
C755        C756   1.411       .  A
C755        C762   1.520       .  S
C756        C757   1.407       .  A
C756        H761   1.083       .  S
C757       C2966   1.421       .  A
C758       C2965   1.421       .  A
C758        C759   1.521       .  S
C759        F763   1.385       .  S
C759        F764   1.384       .  S
C759        F765   1.383       .  S
C762        F766   1.382       .  S
C762        F767   1.384       .  S
C762        F768   1.385       .  S
C769        C774   1.407   1_556  A
C769       C4082   1.409       .  A
C769        H776   1.082       .  S
C770        C771   1.414       .  A
C770       C4081   1.401   1_655  A
C771        C772   1.409   1_556  A
C771        C778   1.520   1_545  S
C772        C773   1.411   1_655  A
C772        H777   1.082   1_545  S
C773       C2334   1.502       .  S
C773       C4086   1.428       .  A
C774       C4085   1.416       .  A
C774        C775   1.521       .  S
C775        F779   1.385       .  S
C775        F780   1.384       .  S
C775       F2989   1.382       .  S
C778        F783   1.382   1_565  S
C778        F784   1.385       .  S
C778       F2990   1.384       .  S
F781       C2983   1.382       .  S
F782       C2986   1.383       .  S
C785        C786   1.404       .  A
C785        C790   1.407       .  A
C785        H792   1.083       .  S
C786        C787   1.420       .  A
C787        C788   1.410       .  A
C787        C794   1.520       .  S
C788        C789   1.404       .  A
C788        H793   1.083       .  S
C789        C790   1.420       .  A
C790        C791   1.521       .  S
C791        F795   1.385       .  S
C791        F796   1.384       .  S
C791        F797   1.382       .  S
C794        F798   1.382       .  S
C794        F799   1.384       .  S
C794        F800   1.384       .  S
C801        C806   1.407       .  A
C801       C1906   1.404       .  A
C801        H808   1.083       .  S
C802        C803   1.423       .  A
C802       C1905   1.405   1_545  A
C803        C804   1.413       .  A
C803        C810   1.520       .  S
C804        C805   1.407       .  A
C804        H809   1.082       .  S
C805       C1910   1.423   1_545  A
C806       C1909   1.420       .  A
C806        C807   1.521       .  S
C807        F811   1.385       .  S
C807        F812   1.384       .  S
C807        F813   1.383       .  S
C810        F814   1.383       .  S
C810        F815   1.383       .  S
C810        F816   1.385       .  S
C817        C818   1.407       .  A
C817        C822   1.411       .  A
C817        H824   1.083       .  S
C818       C3027   1.416       .  A
C819        C820   1.406       .  A
C819       C3026   1.416       .  A
C819        C826   1.519       .  S
C820       C3029   1.404       .  A
C820        H825   1.079       .  S
C821        C822   1.417       .  A
C821       C3028   1.404       .  A
C822        C823   1.519       .  S
C823        F827   1.385       .  S
C823        F828   1.384       .  S
C823        F829   1.382       .  S
C826        F830   1.382       .  S
C826        F831   1.384       .  S
C826        F832   1.385       .  S
C833        C834   1.404       .  A
C833        C838   1.407       .  A
C833        H840   1.083       .  S
C834        C835   1.418       .  A
C835        C836   1.403       .  A
C835        C842   1.518       .  S
C836        C837   1.403       .  A
C836        H841   1.083       .  S
C837        C838   1.421       .  A
C838        C839   1.521       .  S
C839        F843   1.385       .  S
C839        F844   1.384       .  S
C839        F845   1.383       .  S
C842        F846   1.382       .  S
C842        F847   1.380       .  S
C842        F848   1.385       .  S
C849        C850   1.404       .  A
C849        C854   1.406       .  A
C849        H856   1.083       .  S
C850        C851   1.419       .  A
C851        C852   1.405       .  A
C851        C858   1.521       .  S
C852        C853   1.405       .  A
C852        H857   1.083       .  S
C853        C854   1.419       .  A
C854        C855   1.520       .  S
C855        F859   1.385       .  S
C855        F860   1.383       .  S
C855        F861   1.383       .  S
C858        F862   1.384       .  S
C858        F863   1.382       .  S
C858        F864   1.385       .  S
C865        C870   1.404       .  A
C865       C4178   1.402       .  A
C865        H872   1.084       .  S
C866        C867   1.417       .  A
C866       C4177   1.404   1_445  A
C867        C868   1.408       .  A
C867        C874   1.519       .  S
C868        C869   1.405       .  A
C868        H873   1.083       .  S
C869       C4182   1.417   1_445  A
C870       C4181   1.419       .  A
C870        C871   1.520       .  S
C871        F875   1.385       .  S
C871        F876   1.383       .  S
C871        F877   1.382       .  S
C874        F878   1.383       .  S
C874        F879   1.384       .  S
C874        F880   1.385       .  S
C881        C882   1.402   1_565  A
C881        C886   1.405       .  A
C881        H888   1.088       .  S
C882       C1987   1.420       .  A
C883        C884   1.407       .  A
C883       C1986   1.419       .  A
C883        C890   1.521       .  S
C884       C1989   1.406       .  A
C884        H889   1.080       .  S
C885        C886   1.419   1_545  A
C885       C1988   1.403       .  A
C886        C887   1.520       .  S
C887        F893   1.382       .  S
C887       F1995   1.385       .  S
C887       F1996   1.384       .  S
C890        F894   1.385       .  S
C890       F1999   1.382       .  S
C890       F2000   1.384       .  S
F891       C1991   1.385       .  S
F892       C1991   1.384       .  S
F895       C1994   1.383       .  S
F896       C1994   1.384       .  S
C897        C898   1.403       .  A
C897        C902   1.408       .  A
C897        H904   1.084       .  S
C898       C2003   1.415   1_545  A
C899        C900   1.404       .  A
C899       C2002   1.418       .  A
C899        C906   1.520       .  S
C900       C2005   1.403       .  A
C900        H905   1.083       .  S
C901        C902   1.417       .  A
C901       C2004   1.402   1_545  A
C902        C903   1.519       .  S
C903        F907   1.385       .  S
C903        F908   1.382       .  S
C903        F909   1.384       .  S
C906        F910   1.384       .  S
C906        F911   1.383       .  S
C906        F912   1.385       .  S
C913        C914   1.404       .  A
C913        C918   1.405       .  A
C913        H920   1.082       .  S
C914        C915   1.421       .  A
C915        C916   1.410       .  A
C915        C922   1.520       .  S
C916        C917   1.405       .  A
C916        H921   1.083       .  S
C917        C918   1.419       .  A
C918        C919   1.521       .  S
C919        F923   1.385       .  S
C919        F924   1.382       .  S
C919        F925   1.384       .  S
C922        F926   1.384       .  S
C922        F927   1.383       .  S
C922        F928   1.385       .  S
C929        C930   1.398       .  A
C929        C934   1.408       .  A
C929        H936   1.083       .  S
C930        C931   1.411       .  A
C931        C932   1.405       .  A
C931        C938   1.518       .  S
C932        C933   1.408       .  A
C932        H937   1.083       .  S
C933        C934   1.426       .  A
C934        C935   1.521       .  S
C935        F939   1.383       .  S
C935        F940   1.384       .  S
C935        F941   1.385       .  S
C938        F942   1.383       .  S
C938        F943   1.382       .  S
C938        F944   1.385       .  S
C945        C946   1.407       .  A
C945        C950   1.409       .  A
C945        H952   1.082       .  S
C946        C947   1.426       .  A
C947        C948   1.410       .  A
C947        C954   1.522       .  S
C948        C949   1.406       .  A
C948        H953   1.082       .  S
C949        C950   1.424       .  A
C950        C951   1.523       .  S
C951        F955   1.385       .  S
C951        F956   1.383       .  S
C951        F957   1.384       .  S
C954        F958   1.383       .  S
C954        F959   1.384       .  S
C954        F960   1.385       .  S
C961        C962   1.404       .  A
C961        C966   1.408       .  A
C961        H968   1.082       .  S
C962        C963   1.421       .  A
C963        C964   1.406       .  A
C963        C970   1.520       .  S
C964        C965   1.403       .  A
C964        H969   1.083       .  S
C965        C966   1.422       .  A
C966        C967   1.521       .  S
C967        F971   1.385       .  S
C967        F972   1.384       .  S
C967        F973   1.383       .  S
C970        F974   1.383       .  S
C970        F975   1.382       .  S
C970        F976   1.385       .  S
C977        C982   1.407       .  A
C977       C2082   1.404       .  A
C977        H984   1.084       .  S
C978        C979   1.418       .  A
C978       C2081   1.402       .  A
C979        C980   1.411       .  A
C979        C986   1.518   1_565  S
C980       C2085   1.404       .  A
C980        H985   1.083   1_565  S
C981        C982   1.419       .  A
C981       C2084   1.405       .  A
C982        C983   1.521       .  S
C983        F987   1.385       .  S
C983        F988   1.384       .  S
C983       F2093   1.382       .  S
C986        F991   1.383       .  S
C986        F992   1.385       .  S
C986       F2094   1.382   1_545  S
F989       C2087   1.382       .  S
F990       C2090   1.383       .  S
C993        C998   1.405       .  A
C993       C2098   1.411       .  A
C993       H1000   1.082       .  S
C994        C995   1.425       .  A
C994       C2097   1.412   1_545  A
C995        C996   1.410       .  A
C995       C1002   1.521       .  S
C996       C2101   1.404   1_545  A
C996       H1001   1.083       .  S
C997        C998   1.414       .  A
C997       C2100   1.403       .  A
C998        C999   1.521       .  S
C999       F1003   1.385       .  S
C999       F1004   1.384       .  S
C999       F2109   1.382       .  S
C1002      F1007   1.383       .  S
C1002      F1008   1.385       .  S
C1002      F2110   1.383       .  S
F1005      C2103   1.382       .  S
F1006      C2106   1.383       .  S
C1009      C1014   1.407       .  A
C1009      C3218   1.403       .  A
C1009      H1016   1.083       .  S
C1010      C1011   1.419       .  A
C1010      C3217   1.403       .  A
C1011      C1012   1.408       .  A
C1011      C1018   1.520       .  S
C1012      C1013   1.405       .  A
C1012      H1017   1.083       .  S
C1013      C3222   1.420       .  A
C1014      C3221   1.420       .  A
C1014      C1015   1.520       .  S
C1015      F1019   1.385       .  S
C1015      F1020   1.382       .  S
C1015      F1021   1.383       .  S
C1018      F1022   1.384       .  S
C1018      F1023   1.382       .  S
C1018      F1024   1.385       .  S
C1025      C1030   1.409       .  A
C1025      C3234   1.410   1_655  A
C1025      H1032   1.082       .  S
C1026      C1027   1.424       .  A
C1026      C3233   1.410       .  A
C1027      C1028   1.407       .  A
C1027      C1034   1.522       .  S
C1028      C1029   1.404       .  A
C1028      H1033   1.083       .  S
C1029      C3238   1.416       .  A
C1030      C3237   1.416       .  A
C1030      C1031   1.519       .  S
C1031      F1035   1.385       .  S
C1031      F1036   1.383       .  S
C1031      F1037   1.382       .  S
C1034      F1038   1.384       .  S
C1034      F1039   1.383       .  S
C1034      F1040   1.385       .  S
C1041      C1042   1.409       .  A
C1041      C1046   1.412       .  A
C1041      H1048   1.082       .  S
C1042      C3251   1.424       .  A
C1043      C1044   1.407       .  A
C1043      C3250   1.425       .  A
C1043      C1050   1.524       .  S
C1044      C3253   1.408       .  A
C1044      H1049   1.081       .  S
C1045      C2222   1.501       .  S
C1045      C1046   1.423       .  A
C1045      C3252   1.408       .  A
C1046      C1047   1.522       .  S
C1047      F1051   1.385       .  S
C1047      F1052   1.383       .  S
C1047      F1053   1.384       .  S
C1050      F1054   1.383       .  S
C1050      F1055   1.383       .  S
C1050      F1056   1.385       .  S
C1057      C1058   1.406       .  A
C1057      C1062   1.409       .  A
C1057      H1064   1.082       .  S
C1058      C2221   1.494       .  S
C1058      C3267   1.422       .  A
C1059      C1060   1.409       .  A
C1059      C3266   1.422       .  A
C1059      C1066   1.521       .  S
C1060      C3269   1.406       .  A
C1060      H1065   1.083       .  S
C1061      C1062   1.422       .  A
C1061      C3268   1.406       .  A
C1062      C1063   1.521       .  S
C1063      F1067   1.385       .  S
C1063      F1068   1.383       .  S
C1063      F1069   1.384       .  S
C1066      F1070   1.384       .  S
C1066      F1071   1.383       .  S
C1066      F1072   1.385       .  S
C1073      C1078   1.408       .  A
C1073      C2178   1.407       .  A
C1073      H1080   1.083       .  S
C1074      C2177   1.406   1_545  A
C1074      C3283   1.423       .  A
C1075      C1076   1.407       .  A
C1075      C3282   1.423       .  A
C1075      C1082   1.521       .  S
C1076      C3285   1.406       .  A
C1076      H1081   1.082       .  S
C1077      C3284   1.406       .  A
C1077      C2182   1.422   1_545  A
C1078      C2181   1.422       .  A
C1078      C1079   1.522       .  S
C1079      F1083   1.385       .  S
C1079      F1084   1.383       .  S
C1079      F3293   1.384       .  S
C1082      F1087   1.383       .  S
C1082      F1088   1.385       .  S
C1082      F3294   1.383       .  S
F1085      C3287   1.384       .  S
F1086      C3290   1.383       .  S
C1089      C1094   1.407       .  A
C1089      C4402   1.398       .  A
C1089      H1096   1.083       .  S
C1090      C1116   1.480       .  S
C1090      C1091   1.416       .  A
C1090      C4401   1.401   1_445  A
C1091      C1092   1.406       .  A
C1091      C1098   1.521       .  S
C1092      C1093   1.409       .  A
C1092      H1097   1.082       .  S
C1093      C4406   1.427   1_445  A
C1094      C4405   1.429       .  A
C1094      C1095   1.522       .  S
C1095      F1099   1.385       .  S
C1095      F1101   1.383       .  S
C1095      F2204   1.384       .  S
C1098      F1102   1.384       .  S
C1098      F1104   1.385       .  S
C1098      F2207   1.382       .  S
F1100      C2199   1.384       .  S
F1103      C2202   1.382       .  S
O1105     Cu1113   2.005       .  S
O1106     Cu1113   2.007       .  S
O1106      C3324   1.278   1_565  A
O1107      C3325   1.281       .  A
O1108     Cu1113   2.015       .  S
O1108      C3326   1.277       .  A
O1109      C1118   1.279       .  A
O1110     Cu1114   1.999       .  S
O1110      C1117   1.274       .  A
O1111     Cu1114   2.011       .  S
O1112     Cu1114   2.016       .  S
O1112      C3323   1.280       .  A
Cu1113    Cu2218   2.365   1_565  S
Cu1114    Cu2217   2.365   1_455  S
C1115      O3320   1.280       .  A
C1115      C2181   1.489       .  S
C1116      O3314   1.278   1_445  A
C1117      O3315   1.281   1_455  A
C1117      C4370   1.494       .  S
C1118      O3316   1.277   1_455  A
C1118      C4357   1.493       .  S
O1119     Cu1127   2.003       .  S
O1119      C1129   1.278       .  A
O1120     Cu1127   1.997       .  S
O1120      C1130   1.275       .  A
O1121     Cu1127   2.000       .  S
O1121      C1131   1.275       .  A
O1122     Cu1127   2.007       .  S
O1122      C1132   1.278       .  A
O1123     Cu1128   2.022       .  S
O1123      C3340   1.278       .  A
O1124     Cu1128   2.017       .  S
O1124      C3339   1.279       .  A
O1125     Cu1128   2.015       .  S
O1125      C3338   1.279       .  A
O1126     Cu1128   2.016       .  S
O1126      C3337   1.277       .  A
Cu1127    Cu3336   2.363       .  S
Cu1128    Cu3335   2.363   1_455  S
C1129      O3334   1.279       .  A
C1129      C2130   1.498       .  S
C1130      O3333   1.280       .  A
C1130      C2114   1.489       .  S
C1131      O3332   1.279       .  A
C1131      C2165   1.491       .  S
C1132      O3331   1.278       .  A
C1132      C2146   1.493       .  S
O1133     Cu1141   2.026       .  S
O1133      C1143   1.279       .  A
O1134     Cu1141   2.019       .  S
O1134      C1144   1.279       .  A
O1135      C1145   1.276       .  A
O1136     Cu1141   2.007       .  S
O1136      C1146   1.275       .  A
O1137      C1146   1.281       .  A
O1138     Cu1142   2.023       .  S
O1138      C1145   1.280       .  A
O1139     Cu1142   2.005       .  S
O1140     Cu1142   2.006       .  S
C1143      C2085   1.479       .  S
C1144      C2101   1.482       .  S
C1145      C2069   1.479       .  S
C1146      C2050   1.504       .  S
O1147     Cu1155   2.005       .  S
O1147      C1157   1.278       .  A
O1148     Cu1155   2.013       .  S
O1148      C1158   1.277       .  A
O1149     Cu1155   2.018       .  S
O1149      C1159   1.279       .  A
O1150     Cu1155   2.018       .  S
O1150      C1160   1.280       .  A
O1151     Cu1156   2.014       .  S
O1151      C1160   1.276       .  A
O1152     Cu1156   2.009       .  S
O1152      C1159   1.277       .  A
O1153     Cu1156   2.017       .  S
O1153      C1158   1.280       .  A
O1154     Cu1156   2.020       .  S
O1154      C1157   1.278       .  A
Cu1155    Cu1156   2.364       .  S
C1157      C2034   1.494       .  S
C1158      C2018   1.490       .  S
C1159      C2066   1.480       .  S
C1160      C2053   1.505       .  S
O1161     Cu3377   2.010       .  S
O1161      C1171   1.277       .  A
O1162     Cu1169   2.005       .  S
O1162      C1172   1.276       .  A
O1163     Cu1169   2.008       .  S
O1163      C1173   1.279       .  A
O1164     Cu1169   2.010       .  S
O1164      C1174   1.277       .  A
O1165     Cu1170   1.999       .  S
O1165      C2278   1.277   1_565  A
O1166     Cu1170   2.000       .  S
O1166      C2277   1.275   1_565  A
O1167     Cu3378   2.011   1_455  S
O1168     Cu1170   2.011       .  S
Cu1169     O3369   2.009   1_455  S
Cu1169    Cu2274   2.368   1_455  S
Cu1170     O3375   2.013       .  S
Cu1170    Cu2273   2.368   1_565  S
C1171      C1986   1.485       .  S
C1172      C2005   1.477       .  S
C1173      O2270   1.274   1_455  A
C1173      C2197   1.496       .  S
C1174      O2269   1.277   1_455  A
C1174      C1970   1.476       .  S
O1175     Cu1183   2.004       .  S
O1175      C1185   1.276       .  A
O1176     Cu3391   2.009   1_455  S
O1176      C1186   1.277       .  A
O1177     Cu1183   2.024       .  S
O1177      C1187   1.279       .  A
O1178     Cu1183   2.024       .  S
O1178      C1188   1.279       .  A
O1179     Cu1184   2.011       .  S
O1179      C3396   1.279       .  A
O1180     Cu1184   2.004       .  S
O1180      C3395   1.278       .  A
O1181     Cu1184   2.016       .  S
O1181      C1186   1.278       .  A
O1182     Cu3392   2.023       .  S
O1182      C1185   1.279       .  A
Cu1183     O3384   1.998       .  S
Cu1183    Cu3392   2.370       .  S
Cu1184     O3390   2.016   1_455  S
Cu1184    Cu3391   2.369   1_455  S
C1185      C1938   1.481       .  S
C1186      C1954   1.477       .  S
C1187      O3388   1.277       .  A
C1187      C1925   1.488       .  S
C1188      O3387   1.278       .  A
C1188      C2133   1.489       .  S
O1189     Cu1197   1.997       .  S
O1190     Cu1197   2.001       .  S
O1191     Cu1197   2.006       .  S
O1192     Cu1197   2.008       .  S
O1193     Cu1198   2.010       .  S
O1193      C1202   1.279       .  A
O1194     Cu1198   2.005       .  S
O1194      C1201   1.277       .  A
O1195     Cu1198   2.024       .  S
O1195      C1200   1.280       .  A
O1196     Cu1198   2.021       .  S
O1196      C1199   1.278       .  A
C1199      C2098   1.496       .  S
C1200      C1909   1.484       .  S
C1201      C2002   1.478       .  S
C1202      C1989   1.487       .  S
O1203     Cu1211   2.004       .  S
O1203      C1213   1.275       .  A
O1204     Cu1211   2.014       .  S
O1204      C1214   1.277       .  A
O1205     Cu1211   2.021       .  S
O1205      C1215   1.279       .  A
O1206     Cu1211   2.020       .  S
O1206      C1216   1.278       .  A
O1207     Cu1212   2.003       .  S
O1207      C1216   1.277       .  A
O1208     Cu1212   2.006       .  S
O1208      C1215   1.276       .  A
O1209     Cu1212   2.015       .  S
O1209      C1214   1.280       .  A
O1210     Cu1212   2.020       .  S
O1210      C1213   1.280       .  A
Cu1211    Cu1212   2.368       .  S
C1213      C2037   1.492       .  S
C1214      C1890   1.495       .  S
C1215      C1957   1.478       .  S
C1216      C1941   1.479       .  S
O1217      C3435   1.280       .  A
O1218     Cu1225   2.003       .  S
O1218      C3436   1.276       .  A
O1219     Cu1225   2.012       .  S
O1219      C3437   1.277       .  A
O1220     Cu1225   2.010       .  S
O1220      C3438   1.277   1_455  A
O1221     Cu1226   2.017       .  S
O1222     Cu1226   2.010       .  S
O1223      C1228   1.279       .  A
O1224     Cu1226   2.014       .  S
O1224      C1227   1.276       .  A
Cu1225    Cu2330   2.366   1_455  S
Cu1226    Cu2329   2.359   1_565  S
C1227      O3425   1.280       .  A
C1227      C1845   1.503       .  S
C1228      O3426   1.276       .  A
C1228      C1861   1.481       .  S
C1229      O3427   1.277       .  A
C1229      C2178   1.492       .  S
C1230      O3428   1.277       .  A
C1230      C4085   1.486       .  S
O1231     Cu1239   2.012       .  S
O1231      C3449   1.278       .  A
O1232     Cu1239   2.020       .  S
O1232      C3450   1.278       .  A
O1233     Cu1239   2.009       .  S
O1233      C3451   1.276       .  A
O1234     Cu1239   2.005       .  S
O1234      C3452   1.279       .  A
O1235     Cu1240   2.012       .  S
O1235      C1244   1.277       .  A
O1236     Cu1240   2.007       .  S
O1236      C1243   1.279       .  A
O1237     Cu1240   2.012       .  S
O1237      C1242   1.280       .  A
O1238     Cu1240   2.006       .  S
O1238      C1241   1.276       .  A
Cu1239    Cu3448   2.366   1_455  S
Cu1240    Cu3447   2.365       .  S
C1241      O3439   1.278       .  A
C1241      C1858   1.480       .  S
C1242      O3440   1.277       .  A
C1242      C1842   1.502       .  S
C1243      O3441   1.276       .  A
C1243      C2117   1.487       .  S
C1244      O3442   1.278       .  A
C1244      C1826   1.488       .  S
O1245     Cu1253   2.019       .  S
O1246     Cu1253   2.019       .  S
O1247      C1257   1.278       .  A
O1248     Cu1253   2.019       .  S
O1248      C1258   1.278       .  A
O1249      C1258   1.279       .  A
O1250     Cu1254   2.028       .  S
O1250      C1257   1.280       .  A
O1251     Cu1254   2.007       .  S
O1251      C1256   1.277       .  A
O1252     Cu1254   2.009       .  S
O1252      C1255   1.276       .  A
C1255      C1810   1.496       .  S
C1256      C2082   1.483       .  S
C1257      C1797   1.497       .  S
C1258      C1781   1.494       .  S
O1259     Cu1267   2.017       .  S
O1259      C1269   1.280       .  A
O1260     Cu1267   2.016       .  S
O1260      C1270   1.277       .  A
O1261     Cu1267   2.010       .  S
O1261      C1271   1.277       .  A
O1262     Cu1267   2.013       .  S
O1262      C1272   1.277       .  A
O1263     Cu1268   2.025       .  S
O1263      C1272   1.280       .  A
O1264     Cu1268   2.022       .  S
O1264      C1271   1.280       .  A
O1265     Cu1268   2.019       .  S
O1265      C1270   1.280       .  A
O1266     Cu1268   2.027       .  S
O1266      C1269   1.279       .  A
Cu1267    Cu1268   2.364       .  S
C1269      C1794   1.501       .  S
C1270      C1778   1.493       .  S
C1271      C2021   1.490       .  S
C1272      C1765   1.492       .  S
O1273     Cu3489   2.016   1_455  S
O1273      C1283   1.280       .  A
O1274      C1284   1.280       .  A
O1275     Cu1281   2.020       .  S
O1275      C3493   1.278       .  A
O1276     Cu1281   2.019       .  S
O1276      C3494   1.278       .  A
O1277     Cu1282   2.006       .  S
O1278     Cu1282   2.009       .  S
O1279     Cu3490   2.020       .  S
O1279      C1284   1.278       .  A
O1280      C1283   1.276       .  A
Cu1281     O3481   2.020       .  S
Cu1281    Cu2386   2.363       .  S
Cu1282     O3487   2.021   1_455  S
Cu1282    Cu2385   2.365   1_465  S
C1283      C1730   1.499       .  S
C1284      C1714   1.500       .  S
C1285      O3483   1.278       .  A
C1285      C1874   1.500       .  S
C1286      O3484   1.278       .  A
C1286      C1746   1.491       .  S
O1287     Cu1295   2.004       .  S
O1287      C3505   1.276       .  A
O1288     Cu1295   2.007       .  S
O1288      C3506   1.278       .  A
O1289     Cu1295   2.027       .  S
O1289      C1299   1.280       .  A
O1290     Cu3503   2.022       .  S
O1290      C1300   1.278       .  A
O1291     Cu1296   2.019       .  S
O1291      C1300   1.280       .  A
O1292     Cu3504   2.014   1_455  S
O1292      C1299   1.277       .  A
O1293     Cu1296   2.008       .  S
O1293      C1298   1.277       .  A
O1294     Cu1296   2.004       .  S
O1294      C1297   1.278       .  A
Cu1295     O3498   2.023   1_455  S
Cu1295    Cu3504   2.361   1_455  S
Cu1296     O3500   2.019       .  S
Cu1296    Cu3503   2.364       .  S
C1297      O3495   1.276       .  A
C1297      C1829   1.492       .  S
C1298      O3496   1.278       .  A
C1298      C1698   1.482       .  S
C1299      C1682   1.491       .  S
C1300      C1669   1.502       .  S
O1301     Cu1309   2.024       .  S
O1302     Cu1309   2.030       .  S
O1303     Cu1309   2.017       .  S
O1303      C1313   1.278       .  A
O1304      C1314   1.278       .  A
O1305     Cu1310   2.028       .  S
O1305      C1314   1.279       .  A
O1306      C1313   1.280       .  A
O1307     Cu1310   2.008       .  S
O1307      C1312   1.276       .  A
O1308     Cu1310   2.008       .  S
O1308      C1311   1.278       .  A
C1311      C1653   1.487       .  S
C1312      C1813   1.491       .  S
C1313      C1685   1.490       .  S
C1314      C1666   1.500       .  S
O1315     Cu1323   2.030       .  S
O1315      C1325   1.279       .  A
O1316     Cu1323   2.035       .  S
O1316      C1326   1.280       .  A
O1317     Cu1323   2.016       .  S
O1317      C1327   1.277       .  A
O1318     Cu1323   2.021       .  S
O1318      C1328   1.278       .  A
O1319     Cu1324   2.019       .  S
O1319      C1328   1.280       .  A
O1320     Cu1324   2.008       .  S
O1320      C1327   1.279       .  A
O1321     Cu1324   2.004       .  S
O1321      C1326   1.276       .  A
O1322     Cu1324   2.007       .  S
O1322      C1325   1.278       .  A
Cu1323    Cu1324   2.361       .  S
C1325      C1762   1.502       .  S
C1326      C1634   1.488       .  S
C1327      C1733   1.498       .  S
C1328      C1717   1.502       .  S
O1329     Cu1337   2.012       .  S
O1329      C1339   1.279       .  A
O1330     Cu1337   2.013       .  S
O1330      C1340   1.278       .  A
O1331     Cu3545   2.006       .  S
O1331      C1341   1.277       .  A
O1332     Cu1337   2.007       .  S
O1332      C1342   1.279       .  A
O1333     Cu3546   2.001   1_455  S
O1334     Cu1338   1.996       .  S
O1335     Cu1338   2.008       .  S
O1335      C2444   1.277   1_565  A
O1336     Cu1338   2.009       .  S
O1336      C2443   1.277   1_565  A
Cu1337     O3539   2.005   1_455  S
Cu1337    Cu2442   2.368   1_455  S
Cu1338     O3541   1.996       .  S
Cu1338    Cu2441   2.368   1_565  S
C1339      O2440   1.275   1_455  A
C1339      C1621   1.485   1_455  S
C1340      O2439   1.276   1_455  A
C1340      C1973   1.479       .  S
C1341      C1589   1.469       .  S
C1342      C1602   1.497       .  S
O1343     Cu1351   2.004       .  S
O1343      C1353   1.277       .  A
O1344     Cu3559   1.998   1_455  S
O1344      C1354   1.278       .  A
O1345     Cu1351   2.012       .  S
O1345      C1355   1.280       .  A
O1346     Cu1351   2.011       .  S
O1346      C1356   1.278       .  A
O1347     Cu1352   2.012       .  S
O1347      C3564   1.277       .  A
O1348     Cu1352   2.009       .  S
O1348      C3563   1.276       .  A
O1349     Cu1352   2.000       .  S
O1349      C1354   1.275       .  A
O1350     Cu3560   2.003       .  S
O1350      C1353   1.276       .  A
Cu1351     O3552   1.997       .  S
Cu1351    Cu3560   2.363       .  S
Cu1352     O3558   2.000   1_455  S
Cu1352    Cu3559   2.365   1_455  S
C1353      C1541   1.479       .  S
C1354      C1554   1.488       .  S
C1355      O3556   1.276       .  A
C1355      C1570   1.501       .  S
C1356      O3555   1.278       .  A
C1356      C1922   1.487       .  S
O1357     Cu1365   2.000       .  S
O1358     Cu1365   2.001       .  S
O1359     Cu1365   2.017       .  S
O1360     Cu1365   2.017       .  S
O1361     Cu1366   2.018       .  S
O1361      C1370   1.278       .  A
O1362     Cu1366   2.017       .  S
O1362      C1369   1.278       .  A
O1363     Cu1366   1.998       .  S
O1363      C1368   1.274       .  A
O1364     Cu1366   1.998       .  S
O1364      C1367   1.275       .  A
C1367      C1586   1.470       .  S
C1368      C1605   1.496       .  S
C1369      C1906   1.484       .  S
C1370      C1525   1.472       .  S
O1371     Cu1379   2.025       .  S
O1371      C1381   1.281       .  A
O1372     Cu1379   2.034       .  S
O1372      C1382   1.281       .  A
O1373     Cu1379   1.991       .  S
O1373      C1383   1.274       .  A
O1374     Cu1379   1.999       .  S
O1374      C1384   1.275       .  A
O1375     Cu1380   2.004       .  S
O1375      C1384   1.278       .  A
O1376     Cu1380   2.006       .  S
O1376      C1383   1.279       .  A
O1377     Cu1380   2.004       .  S
O1377      C1382   1.276       .  A
O1378     Cu1380   2.005       .  S
O1378      C1381   1.275       .  A
Cu1379    Cu1380   2.366       .  S
C1381      C1893   1.494       .  S
C1382      C1506   1.487       .  S
C1383      C1557   1.487       .  S
C1384      C1538   1.477       .  S
O1385     Cu1393   2.014       .  S
O1385      C3603   1.279   1_465  A
O1386     Cu1393   2.010       .  S
O1386      C2500   1.277   1_465  A
O1387     Cu3601   2.020       .  S
O1387      C1397   1.278       .  A
O1388      C1398   1.275       .  A
O1389     Cu3602   2.025   1_455  S
O1389      C1398   1.281       .  A
O1390      C1397   1.278       .  A
O1391     Cu1394   2.014       .  S
O1391      C1396   1.279       .  A
O1392     Cu1394   2.013       .  S
Cu1393     O3595   2.022   1_455  S
Cu1393    Cu2498   2.366   1_465  S
Cu1394     O3597   2.020       .  S
Cu1394    Cu2497   2.363       .  S
C1395      O3593   1.279   1_545  A
C1395      C1618   1.500       .  S
C1396      O2490   1.276       .  A
C1396      C1749   1.486       .  S
C1397      C1474   1.485       .  S
C1398      C1490   1.500       .  S
O1399     Cu3615   2.005       .  S
O1399      C1409   1.279       .  A
O1400     Cu1407   2.006       .  S
O1400      C1410   1.279       .  A
O1401     Cu1407   2.001       .  S
O1401      C1411   1.277       .  A
O1402     Cu1407   2.003       .  S
O1402      C1412   1.277       .  A
O1403     Cu1408   2.015       .  S
O1403      C3620   1.277       .  A
O1404     Cu1408   2.014       .  S
O1404      C3619   1.276       .  A
O1405     Cu3616   2.016       .  S
O1405      C1410   1.277       .  A
O1406     Cu1408   2.025       .  S
O1406      C1409   1.278       .  A
Cu1407     O3607   2.008       .  S
Cu1407    Cu3616   2.365       .  S
Cu1408     O3613   2.014   1_455  S
Cu1408    Cu3615   2.363       .  S
C1409      C1458   1.504       .  S
C1410      C1442   1.493       .  S
C1411      O3612   1.277       .  A
C1411      C1701   1.480       .  S
C1412      O3611   1.278       .  A
C1412      C1573   1.480       .  S
O1413     Cu1421   2.028       .  S
O1413      C1423   1.280       .  A
O1414      C1424   1.275       .  A
O1415     Cu1421   2.003       .  S
O1415      C1425   1.275       .  A
O1416     Cu1421   2.000       .  S
O1416      C1426   1.277       .  A
O1417     Cu1422   2.025       .  S
O1418     Cu1422   2.025       .  S
O1419     Cu1422   2.020       .  S
O1419      C1424   1.281       .  A
O1420      C1423   1.276       .  A
C1423      C1445   1.492       .  S
C1424      C1461   1.503       .  S
C1425      C1650   1.486       .  S
C1426      C1522   1.488       .  S
O1427     Cu1435   2.001       .  S
O1427      C1437   1.277       .  A
O1428     Cu1435   2.007       .  S
O1428      C1438   1.276       .  A
O1429     Cu1435   2.025       .  S
O1429      C1439   1.281       .  A
O1430     Cu1435   2.027       .  S
O1430      C1440   1.281       .  A
O1431     Cu1436   2.007       .  S
O1431      C1440   1.276       .  A
O1432     Cu1436   2.008       .  S
O1432      C1439   1.276       .  A
O1433     Cu1436   2.032       .  S
O1433      C1438   1.281       .  A
O1434     Cu1436   2.035       .  S
O1434      C1437   1.280       .  A
Cu1435    Cu1436   2.367       .  S
C1437      C1637   1.487       .  S
C1438      C1509   1.480       .  S
C1439      C1477   1.490       .  S
C1440      C1493   1.497       .  S
C1441      C1442   1.407       .  A
C1441      C1446   1.408       .  A
C1441      H1448   1.082       .  S
C1442      C1443   1.422       .  A
C1443      C1444   1.408       .  A
C1443      C1450   1.522       .  S
C1444      C1445   1.407       .  A
C1444      H1449   1.083       .  S
C1445      C1446   1.420       .  A
C1446      C1447   1.520       .  S
C1447      F1451   1.385       .  S
C1447      F1452   1.383       .  S
C1447      F1453   1.384       .  S
C1450      F1454   1.383       .  S
C1450      F1455   1.383       .  S
C1450      F1456   1.385       .  S
C1457      C1458   1.409       .  A
C1457      C1462   1.409       .  A
C1457      H1464   1.081       .  S
C1458      C1459   1.424       .  A
C1459      C1460   1.411       .  A
C1459      C1466   1.520       .  S
C1460      C1461   1.408       .  A
C1460      H1465   1.082       .  S
C1461      C1462   1.425       .  A
C1462      C1463   1.524       .  S
C1463      F1467   1.385       .  S
C1463      F1468   1.384       .  S
C1463      F1469   1.383       .  S
C1466      F1470   1.383       .  S
C1466      F1471   1.383       .  S
C1466      F1472   1.384       .  S
C1473      C1474   1.404       .  A
C1473      C1478   1.410       .  A
C1473      H1480   1.083       .  S
C1474      C1475   1.417       .  A
C1475      C1476   1.409       .  A
C1475      C1482   1.519       .  S
C1476      C1477   1.405       .  A
C1476      H1481   1.083       .  S
C1477      C1478   1.422       .  A
C1478      C1479   1.520       .  S
C1479      F1483   1.385       .  S
C1479      F1484   1.383       .  S
C1479      F1485   1.383       .  S
C1482      F1486   1.384       .  S
C1482      F1487   1.382       .  S
C1482      F1488   1.385       .  S
C1489      C1490   1.406       .  A
C1489      C1494   1.410       .  A
C1489      H1496   1.082       .  S
C1490      C1491   1.426       .  A
C1491      C1492   1.411       .  A
C1491      C1498   1.522       .  S
C1492      C1493   1.405       .  A
C1492      H1497   1.082       .  S
C1493      C1494   1.423       .  A
C1494      C1495   1.521       .  S
C1495      F1499   1.383       .  S
C1495      F1500   1.382       .  S
C1495      F1501   1.384       .  S
C1498      F1502   1.384       .  S
C1498      F1503   1.383       .  S
C1498      F1504   1.385       .  S
C1505      C1506   1.406       .  A
C1505      C1510   1.411       .  A
C1505      H1512   1.083       .  S
C1506      C1507   1.421       .  A
C1507      C1508   1.410       .  A
C1507      C1514   1.520       .  S
C1508      C1509   1.402       .  A
C1508      H1513   1.083       .  S
C1509      C1510   1.415       .  A
C1510      C1511   1.518       .  S
C1511      F1515   1.384       .  S
C1511      F1516   1.382       .  S
C1511      F1517   1.383       .  S
C1514      F1518   1.382       .  S
C1514      F1519   1.384       .  S
C1514      F1520   1.385       .  S
C1521      C1522   1.408       .  A
C1521      C1526   1.405       .  A
C1521      H1528   1.083       .  S
C1523      C1524   1.412       .  A
C1523      C1530   1.518       .  S
C1524      H1529   1.083       .  S
C1525      C1526   1.411       .  A
C1526      C1527   1.519       .  S
C1527      F1533   1.383       .  S
C1530      F1534   1.383       .  S
C1537      C1538   1.402       .  A
C1537      C1542   1.404       .  A
C1537      H1544   1.083       .  S
C1538      C1539   1.419       .  A
C1539      C1540   1.406       .  A
C1539      C1546   1.521       .  S
C1540      C1541   1.404       .  A
C1540      H1545   1.083       .  S
C1541      C1542   1.418       .  A
C1542      C1543   1.519       .  S
C1543      F1547   1.385       .  S
C1543      F1548   1.383       .  S
C1543      F1549   1.383       .  S
C1546      F1550   1.384       .  S
C1546      F1551   1.383       .  S
C1546      F1552   1.385       .  S
C1553      C1554   1.405       .  A
C1553      C1558   1.403       .  A
C1553      H1560   1.082       .  S
C1554      C1555   1.422       .  A
C1555      C1556   1.407       .  A
C1555      C1562   1.522       .  S
C1556      C1557   1.406       .  A
C1556      H1561   1.082       .  S
C1557      C1558   1.422       .  A
C1558      C1559   1.523       .  S
C1559      F1563   1.385       .  S
C1559      F1564   1.383       .  S
C1559      F1565   1.383       .  S
C1562      F1566   1.383       .  S
C1562      F1567   1.383       .  S
C1562      F1568   1.385       .  S
C1569      C1570   1.412       .  A
C1569      C1574   1.408       .  A
C1569      H1576   1.082       .  S
C1570      C3779   1.429       .  A
C1571      C3778   1.428       .  A
C1571      C1572   1.409       .  A
C1571      C1578   1.521       .  S
C1572      C3781   1.398       .  A
C1572      H1577   1.083       .  S
C1573      C3780   1.400       .  A
C1573      C1574   1.414       .  A
C1574      C1575   1.521       .  S
C1575      F1579   1.385       .  S
C1575      F1580   1.383       .  S
C1575      F1581   1.382       .  S
C1578      F1582   1.383       .  S
C1578      F1583   1.384       .  S
C1578      F1584   1.385       .  S
C1585      C1590   1.404       .  A
C1585      H1592   1.084       .  S
C1586      C1587   1.416       .  A
C1587      C1588   1.405       .  A
C1587      C1594   1.519       .  S
C1588      C1589   1.401       .  A
C1588      H1593   1.083       .  S
C1590      C1591   1.520       .  S
C1591      F1595   1.385       .  S
C1591      F1596   1.383       .  S
C1591      F1597   1.382       .  S
C1594      F1598   1.382       .  S
C1594      F1599   1.383       .  S
C1594      F1600   1.385       .  S
C1601      C1602   1.408       .  A
C1601      C1606   1.407       .  A
C1601      H1608   1.081       .  S
C1603      C1604   1.405       .  A
C1603      C1610   1.522       .  S
C1604      H1609   1.082       .  S
C1605      C1606   1.425       .  A
C1606      C1607   1.524       .  S
C1607      F1611   1.385       .  S
C1607      F1612   1.383       .  S
C1607      F1613   1.383       .  S
C1610      F1614   1.384       .  S
C1610      F1615   1.383       .  S
C1610      F1616   1.385       .  S
C1617      C2722   1.407       .  A
C1617      C1622   1.406   1_655  A
C1617      H1624   1.082       .  S
C1618      C2721   1.412   1_545  A
C1618      C1619   1.428       .  A
C1619      C1620   1.408       .  A
C1619      C1626   1.522       .  S
C1620      C2725   1.400       .  A
C1620      H1625   1.083       .  S
C1621      C2724   1.404       .  A
C1621      C1622   1.418   1_655  A
C1622      C1623   1.520       .  S
C1623      F1627   1.385       .  S
C1623      F1628   1.383       .  S
C1626      F1631   1.383       .  S
C1626      F1632   1.385       .  S
C1633      C1634   1.406       .  A
C1633      C1638   1.415       .  A
C1633      H1640   1.083       .  S
C1634      C1635   1.421       .  A
C1635      C1636   1.405       .  A
C1635      C1642   1.522       .  S
C1636      C1637   1.402       .  A
C1636      H1641   1.083       .  S
C1637      C1638   1.419       .  A
C1638      C1639   1.518       .  S
C1639      F1643   1.385       .  S
C1639      F1644   1.382       .  S
C1639      F1645   1.384       .  S
C1642      F1646   1.383       .  S
C1642      F1647   1.382       .  S
C1642      F1648   1.385       .  S
C1649      C1650   1.403       .  A
C1649      C1654   1.408       .  A
C1649      H1656   1.083       .  S
C1651      C1652   1.408       .  A
C1651      C1658   1.521       .  S
C1652      H1657   1.084       .  S
C1653      C1654   1.420       .  A
C1654      C1655   1.519       .  S
C1655      F1659   1.384       .  S
C1655      F1660   1.383       .  S
C1655      F1661   1.384       .  S
C1658      F1662   1.384       .  S
C1658      F1663   1.382       .  S
C1658      F1664   1.385       .  S
C1665      C1666   1.408       .  A
C1665      C1670   1.411       .  A
C1665      H1672   1.082       .  S
C1666      C1667   1.422       .  A
C1667      C1668   1.411       .  A
C1667      C1674   1.521       .  S
C1668      C1669   1.409       .  A
C1668      H1673   1.082       .  S
C1669      C1670   1.424       .  A
C1670      C1671   1.522       .  S
C1671      F1675   1.385       .  S
C1671      F1676   1.383       .  S
C1671      F1677   1.383       .  S
C1674      F1678   1.384       .  S
C1674      F1679   1.383       .  S
C1674      F1680   1.385       .  S
C1681      C1682   1.405       .  A
C1681      C1686   1.411       .  A
C1681      H1688   1.083       .  S
C1682      C1683   1.422       .  A
C1683      C1684   1.412       .  A
C1683      C1690   1.520       .  S
C1684      C1685   1.404       .  A
C1684      H1689   1.083       .  S
C1685      C1686   1.420       .  A
C1686      C1687   1.519       .  S
C1687      F1691   1.385       .  S
C1687      F1692   1.381       .  S
C1687      F1693   1.384       .  S
C1690      F1694   1.384       .  S
C1690      F1695   1.382       .  S
C1690      F1696   1.385       .  S
C1697      C3906   1.407       .  A
C1697      C1702   1.409       .  A
C1697      H1704   1.082       .  S
C1698      C3905   1.406       .  A
C1698      C1699   1.418       .  A
C1699      C1700   1.405       .  A
C1699      C1706   1.520       .  S
C1700      C1701   1.403       .  A
C1700      H1705   1.083       .  S
C1701      C3910   1.418       .  A
C1702      C3909   1.423       .  A
C1702      C1703   1.520       .  S
C1703      F1707   1.385       .  S
C1703      F1708   1.382       .  S
C1703      F1709   1.382       .  S
C1706      F1710   1.382       .  S
C1706      F1711   1.384       .  S
C1706      F1712   1.385       .  S
C1713      C1714   1.407       .  A
C1713      C1718   1.411       .  A
C1713      H1720   1.082       .  S
C1714      C1715   1.423       .  A
C1715      C1716   1.412       .  A
C1715      C1722   1.521       .  S
C1716      C1717   1.408       .  A
C1716      H1721   1.082       .  S
C1717      C1718   1.424       .  A
C1718      C1719   1.520       .  S
C1719      F1723   1.384       .  S
C1719      F1724   1.383       .  S
C1719      F1725   1.384       .  S
C1722      F1726   1.384       .  S
C1722      F1727   1.383       .  S
C1722      F1728   1.385       .  S
C1729      C1730   1.409       .  A
C1729      C1734   1.411       .  A
C1729      H1736   1.082       .  S
C1730      C1731   1.424       .  A
C1731      C1732   1.408       .  A
C1731      C1738   1.523       .  S
C1732      C1733   1.407       .  A
C1732      H1737   1.082       .  S
C1733      C1734   1.423       .  A
C1734      C1735   1.522       .  S
C1735      F1739   1.385       .  S
C1735      F1740   1.384       .  S
C1735      F1741   1.383       .  S
C1738      F1742   1.383       .  S
C1738      F1743   1.383       .  S
C1738      F1744   1.385       .  S
C1745      C1746   1.405   1_455  A
C1745      C1750   1.407       .  A
C1745      H1752   1.083       .  S
C1746      C2851   1.421       .  A
C1747      C2850   1.418       .  A
C1747      C1748   1.410       .  A
C1747      C1754   1.519   1_545  S
C1748      H1753   1.083   1_545  S
C1749      C3958   1.420       .  A
C1750      C3957   1.421   1_455  A
C1750      C1751   1.521       .  S
C1751      F1755   1.385       .  S
C1751      F1756   1.384       .  S
C1751      F1757   1.383       .  S
C1754      F1758   1.382   1_565  S
C1754      F1759   1.384       .  S
C1754      F1760   1.385       .  S
C1761      C1762   1.409       .  A
C1761      C1766   1.408   1_556  A
C1761      H1768   1.082       .  S
C1762      C1763   1.426       .  A
C1763      C1764   1.414   1_556  A
C1763      C1770   1.521       .  S
C1764      C1765   1.406       .  A
C1764      H1769   1.083       .  S
C1765      C1766   1.418       .  A
C1766      C1767   1.521       .  S
C1767      F1771   1.385   1_554  S
C1767      F1772   1.384       .  S
C1767      F1773   1.382       .  S
C1770      F1774   1.384       .  S
C1770      F1775   1.383       .  S
C1770      F1776   1.385       .  S
C1777      C1778   1.405       .  A
C1777      C1782   1.410       .  A
C1777      H1784   1.083       .  S
C1778      C1779   1.422       .  A
C1779      C1780   1.410       .  A
C1779      C1786   1.521       .  S
C1780      C1781   1.406       .  A
C1780      H1785   1.083       .  S
C1781      C1782   1.422       .  A
C1782      C1783   1.521       .  S
C1783      F1787   1.385       .  S
C1783      F1788   1.384       .  S
C1783      F1789   1.382       .  S
C1786      F1790   1.383       .  S
C1786      F1791   1.383       .  S
C1786      F1792   1.385       .  S
C1793      C1794   1.408       .  A
C1793      C1798   1.411       .  A
C1793      H1800   1.083       .  S
C1794      C1795   1.424       .  A
C1795      C1796   1.412       .  A
C1795      C1802   1.521       .  S
C1796      C1797   1.407       .  A
C1796      H1801   1.083       .  S
C1797      C1798   1.421       .  A
C1798      C1799   1.520       .  S
C1799      F1803   1.385       .  S
C1799      F1804   1.384       .  S
C1799      F1805   1.383       .  S
C1802      F1806   1.383       .  S
C1802      F1807   1.384       .  S
C1802      F1808   1.385       .  S
C1809      C1814   1.410   1_554  A
C1809      H1816   1.083       .  S
C1810      C1811   1.425       .  A
C1811      C1812   1.411   1_554  A
C1811      C1818   1.521       .  S
C1812      C1813   1.404       .  A
C1812      H1817   1.083       .  S
C1814      C1815   1.521       .  S
C1815      F1819   1.385       .  S
C1815      F1820   1.384       .  S
C1815      F1821   1.383   1_565  S
C1818      F1822   1.384       .  S
C1818      F1823   1.383       .  S
C1818      F1824   1.385       .  S
C1825      C4034   1.404       .  A
C1825      C1830   1.406   1_554  A
C1825      H1832   1.083       .  S
C1826      C4033   1.405       .  A
C1826      C1827   1.419       .  A
C1827      C1828   1.408   1_554  A
C1827      C1834   1.520       .  S
C1828      C1829   1.408       .  A
C1828      H1833   1.082       .  S
C1829      C4038   1.423       .  A
C1830      C4037   1.423       .  A
C1830      C1831   1.522       .  S
C1831      F1835   1.384       .  S
C1831      F1836   1.383       .  S
C1831      F1837   1.384       .  S
C1834      F1838   1.383       .  S
C1834      F1839   1.383       .  S
C1834      F1840   1.385   1_554  S
C1841      C1842   1.407       .  A
C1841      C1846   1.409       .  A
C1841      H1848   1.081       .  S
C1842      C4051   1.425       .  A
C1843      C4050   1.424       .  A
C1843      C1844   1.412       .  A
C1843      C1850   1.522       .  S
C1844      C4053   1.409       .  A
C1844      H1849   1.082       .  S
C1845      C4052   1.409       .  A
C1845      C1846   1.425       .  A
C1846      C1847   1.522       .  S
C1847      F1851   1.385       .  S
C1847      F1852   1.383       .  S
C1847      F1853   1.383       .  S
C1850      F1854   1.383       .  S
C1850      F1855   1.384       .  S
C1850      F1856   1.385       .  S
C1857      C4066   1.403       .  A
C1857      C1862   1.407       .  A
C1857      H1864   1.083       .  S
C1858      C4065   1.403       .  A
C1858      C1859   1.418       .  A
C1859      C1860   1.408       .  A
C1859      C1866   1.520       .  S
C1860      C1861   1.404       .  A
C1860      H1865   1.083       .  S
C1861      C4070   1.420       .  A
C1862      C4069   1.419       .  A
C1862      C1863   1.520       .  S
C1863      F1867   1.385       .  S
C1863      F1868   1.384       .  S
C1863      F1869   1.382       .  S
C1866      F1870   1.382       .  S
C1866      F1871   1.383       .  S
C1866      F1872   1.384       .  S
C1873      C2978   1.401       .  A
C1873      C1878   1.410   1_556  A
C1873      H1880   1.083       .  S
C1874      C2977   1.410   1_655  A
C1874      C1875   1.426       .  A
C1875      C1876   1.411   1_556  A
C1875      C1882   1.521       .  S
C1876      C1877   1.404       .  A
C1876      H1881   1.083       .  S
C1877      C3438   1.487       .  S
C1877      C2982   1.417   1_655  A
C1878      C2981   1.429       .  A
C1878      C1879   1.522       .  S
C1879      F1883   1.385       .  S
C1879      F1884   1.384       .  S
C1879      F4093   1.383       .  S
C1882      F4094   1.384       .  S
C1882      F1887   1.383       .  S
C1882      F1888   1.385       .  S
F1885      C4087   1.383       .  S
F1886      C4090   1.384       .  S
C1889      C1890   1.406       .  A
C1889      C1894   1.408       .  A
C1889      H1896   1.082       .  S
C1890      C1891   1.424       .  A
C1891      C1892   1.411       .  A
C1891      C1898   1.521       .  S
C1892      C1893   1.406       .  A
C1892      H1897   1.082       .  S
C1893      C1894   1.422       .  A
C1894      C1895   1.522       .  S
C1895      F1899   1.385       .  S
C1895      F1900   1.384       .  S
C1895      F1901   1.383       .  S
C1898      F1902   1.383       .  S
C1898      F1903   1.383       .  S
C1898      F1904   1.385       .  S
C1905      C1910   1.407       .  A
C1905      H1912   1.083       .  S
C1906      C1907   1.418       .  A
C1907      C1908   1.409       .  A
C1907      C1914   1.519       .  S
C1908      C1909   1.404       .  A
C1908      H1913   1.083       .  S
C1910      C1911   1.522       .  S
C1911      F1915   1.385       .  S
C1911      F1916   1.384       .  S
C1911      F1917   1.383       .  S
C1914      F1918   1.382       .  S
C1914      F1919   1.384       .  S
C1914      F1920   1.385       .  S
C1921      C1922   1.406       .  A
C1921      C1926   1.410       .  A
C1921      H1928   1.083       .  S
C1922      C4131   1.419       .  A
C1923      C4130   1.419       .  A
C1923      C1924   1.406       .  A
C1923      C1930   1.520       .  S
C1924      C4133   1.406       .  A
C1924      H1929   1.083       .  S
C1925      C4132   1.406       .  A
C1925      C1926   1.420       .  A
C1926      C1927   1.520       .  S
C1927      F1931   1.385       .  S
C1927      F1932   1.384       .  S
C1927      F1933   1.383       .  S
C1930      F1934   1.382   1_655  S
C1930      F1935   1.384       .  S
C1930      F1936   1.385       .  S
C1937      C1938   1.404       .  A
C1937      C1942   1.409       .  A
C1937      H1944   1.082       .  S
C1938      C1939   1.417       .  A
C1939      C1940   1.406       .  A
C1939      C1946   1.519       .  S
C1940      C1941   1.403       .  A
C1940      H1945   1.084       .  S
C1941      C1942   1.417       .  A
C1942      C1943   1.518       .  S
C1943      F1947   1.385       .  S
C1943      F1948   1.383       .  S
C1943      F1949   1.383       .  S
C1946      F1950   1.381       .  S
C1946      F1951   1.383       .  S
C1946      F1952   1.385       .  S
C1953      C1954   1.403       .  A
C1953      C1958   1.409       .  A
C1953      H1960   1.082       .  S
C1954      C1955   1.416       .  A
C1955      C1956   1.407       .  A
C1955      C1962   1.519       .  S
C1956      C1957   1.402       .  A
C1956      H1961   1.080       .  S
C1957      C1958   1.417       .  A
C1958      C1959   1.518       .  S
C1959      F1963   1.385       .  S
C1959      F1964   1.382       .  S
C1959      F1965   1.382       .  S
C1962      F1966   1.384       .  S
C1962      F1967   1.382       .  S
C1962      F1968   1.385       .  S
C1969      C3074   1.404   1_565  A
C1969      C1974   1.405       .  A
C1969      H1976   1.083       .  S
C1970      C3073   1.401   1_455  A
C1970      C1971   1.417       .  A
C1971      C1972   1.409       .  A
C1971      C1978   1.519       .  S
C1972      C1973   1.405       .  A
C1972      H1977   1.083       .  S
C1973      C3078   1.419   1_455  A
C1974      C3077   1.418   1_565  A
C1974      C1975   1.521       .  S
C1975      F1979   1.385       .  S
C1975      F1980   1.384       .  S
C1975      F1981   1.382       .  S
C1978      F1982   1.382       .  S
C1978      F1983   1.384       .  S
C1978      F1984   1.384       .  S
C1985      C1986   1.405       .  A
C1985      C1990   1.408       .  A
C1985      H1992   1.078       .  S
C1987      C1988   1.408       .  A
C1987      C1994   1.520       .  S
C1988      H1993   1.089       .  S
C1989      C1990   1.421       .  A
C1990      C1991   1.521       .  S
C1991      F1997   1.383       .  S
C1994      F1998   1.385       .  S
C2001      C2002   1.404       .  A
C2001      C2006   1.407       .  A
C2001      H2008   1.083       .  S
C2003      C2004   1.406       .  A
C2003      C2010   1.518       .  S
C2004      H2009   1.084       .  S
C2005      C2006   1.418       .  A
C2006      C2007   1.521       .  S
C2007      F2011   1.385       .  S
C2007      F2012   1.382       .  S
C2007      F2013   1.384       .  S
C2010      F2014   1.384   1_565  S
C2010      F2015   1.382       .  S
C2010      F2016   1.384       .  S
C2017      C2018   1.404       .  A
C2017      C2022   1.408       .  A
C2017      H2024   1.083       .  S
C2018      C2019   1.421       .  A
C2019      C2020   1.410       .  A
C2019      C2026   1.520       .  S
C2020      C2021   1.406       .  A
C2020      H2025   1.083       .  S
C2021      C2022   1.421       .  A
C2022      C2023   1.520       .  S
C2023      F2027   1.385       .  S
C2023      F2028   1.382       .  S
C2023      F2029   1.384       .  S
C2026      F2030   1.384       .  S
C2026      F2031   1.383       .  S
C2026      F2032   1.385       .  S
C2033      C2034   1.406       .  A
C2033      C2038   1.407       .  A
C2033      H2040   1.082       .  S
C2034      C2035   1.422       .  A
C2035      C2036   1.410       .  A
C2035      C2042   1.519       .  S
C2036      C2037   1.406       .  A
C2036      H2041   1.082       .  S
C2037      C2038   1.422       .  A
C2038      C2039   1.522       .  S
C2039      F2043   1.382       .  S
C2039      F2044   1.383       .  S
C2039      F2045   1.385       .  S
C2042      F2046   1.382       .  S
C2042      F2047   1.383       .  S
C2042      F2048   1.385       .  S
C2049      C2050   1.407       .  A
C2049      C2054   1.410       .  A
C2049      H2056   1.081       .  S
C2050      C2051   1.426       .  A
C2051      C2052   1.410       .  A
C2051      C2058   1.524       .  S
C2052      C2053   1.409       .  A
C2052      H2057   1.081       .  S
C2053      C2054   1.426       .  A
C2054      C2055   1.523       .  S
C2055      F2059   1.385       .  S
C2055      F2060   1.383       .  S
C2055      F2061   1.382       .  S
C2058      F2062   1.384       .  S
C2058      F2063   1.384       .  S
C2058      F2064   1.385       .  S
C2065      C2066   1.403       .  A
C2065      C2070   1.408       .  A
C2065      H2072   1.083       .  S
C2066      C2067   1.418       .  A
C2067      C2068   1.408       .  A
C2067      C2074   1.518       .  S
C2068      C2069   1.402       .  A
C2068      H2073   1.083       .  S
C2069      C2070   1.419       .  A
C2070      C2071   1.520       .  S
C2071      F2075   1.385       .  S
C2071      F2076   1.383       .  S
C2071      F2077   1.382       .  S
C2074      F2078   1.382       .  S
C2074      F2079   1.383       .  S
C2074      F2080   1.384       .  S
C2081      C2086   1.405       .  A
C2081      H2088   1.083       .  S
C2082      C2083   1.418       .  A
C2083      C2084   1.410       .  A
C2083      C2090   1.518       .  S
C2084      H2089   1.083       .  S
C2085      C2086   1.417       .  A
C2086      C2087   1.520       .  S
C2087      F2091   1.384       .  S
C2087      F2092   1.384       .  S
C2090      F2095   1.384       .  S
C2090      F2096   1.384       .  S
C2097      C2102   1.406       .  A
C2097      H2104   1.082       .  S
C2098      C2099   1.425       .  A
C2099      C2100   1.409       .  A
C2099      C2106   1.521       .  S
C2100      H2105   1.083       .  S
C2101      C2102   1.413       .  A
C2102      C2103   1.520       .  S
C2103      F2107   1.385       .  S
C2103      F2108   1.384       .  S
C2106      F2111   1.383       .  S
C2106      F2112   1.385       .  S
C2113      C4322   1.405       .  A
C2113      C2118   1.409       .  A
C2113      H2120   1.083       .  S
C2114      C4321   1.406       .  A
C2114      C2115   1.422       .  A
C2115      C2116   1.406       .  A
C2115      C2122   1.521       .  S
C2116      C2117   1.404       .  A
C2116      H2121   1.083       .  S
C2117      C4326   1.421       .  A
C2118      C4325   1.420       .  A
C2118      C2119   1.521       .  S
C2119      F2123   1.385       .  S
C2119      F2124   1.382       .  S
C2119      F2125   1.383       .  S
C2122      F2126   1.384       .  S
C2122      F2127   1.383       .  S
C2122      F2128   1.385       .  S
C2129      C4338   1.408   1_655  A
C2129      C2134   1.408       .  A
C2129      H2136   1.082       .  S
C2130      C4337   1.410       .  A
C2130      C2131   1.424       .  A
C2131      C2132   1.411       .  A
C2131      C2138   1.521       .  S
C2132      C2133   1.406       .  A
C2132      H2137   1.083       .  S
C2133      C4342   1.416       .  A
C2134      C4341   1.419   1_655  A
C2134      C2135   1.520       .  S
C2135      F2139   1.385       .  S
C2135      F2140   1.383       .  S
C2135      F2141   1.383       .  S
C2138      F2142   1.383       .  S
C2138      F2143   1.383       .  S
C2138      F2144   1.385       .  S
C2145      C2146   1.406       .  A
C2145      C2150   1.408       .  A
C2145      H2152   1.083       .  S
C2146      C4355   1.421       .  A
C2147      C4354   1.421       .  A
C2147      C2148   1.410       .  A
C2147      C2154   1.521       .  S
C2148      C4357   1.407       .  A
C2148      H2153   1.082       .  S
C2149      C3326   1.493       .  S
C2149      C4356   1.407       .  A
C2149      C2150   1.421       .  A
C2150      C2151   1.521       .  S
C2151      F2155   1.385       .  S
C2151      F2156   1.383       .  S
C2151      F2157   1.383       .  S
C2154      F2158   1.384       .  S
C2154      F2159   1.383       .  S
C2154      F2160   1.385       .  S
C2161      C2162   1.404       .  A
C2161      C2166   1.405       .  A
C2161      H2168   1.082       .  S
C2162      C3325   1.492       .  S
C2162      C4371   1.424       .  A
C2163      C4370   1.425       .  A
C2163      C2164   1.410       .  A
C2163      C2170   1.523       .  S
C2164      C4373   1.407       .  A
C2164      H2169   1.082       .  S
C2165      C4372   1.406       .  A
C2165      C2166   1.422       .  A
C2166      C2167   1.522       .  S
C2167      F2171   1.385       .  S
C2167      F2172   1.383       .  S
C2167      F2173   1.384       .  S
C2170      F2174   1.384       .  S
C2170      F2175   1.383       .  S
C2170      F2176   1.385       .  S
C2177      C2182   1.407       .  A
C2177      H2184   1.083       .  S
C2178      C4387   1.422       .  A
C2179      C4386   1.423       .  A
C2179      C2180   1.407       .  A
C2179      C2186   1.521       .  S
C2180      C4389   1.404       .  A
C2180      H2185   1.083       .  S
C2181      C4388   1.404       .  A
C2182      C2183   1.522       .  S
C2183      F2187   1.385       .  S
C2183      F2188   1.383       .  S
C2183      F4397   1.384       .  S
C2186      F4398   1.384       .  S
C2186      F2191   1.383       .  S
C2186      F2192   1.385       .  S
F2189      C4391   1.384       .  S
F2190      C4394   1.384       .  S
C2193      C3298   1.401   1_565  A
C2193      C2198   1.407       .  A
C2193      H2200   1.083       .  S
C2194      C3297   1.398   1_455  A
C2194      C2195   1.411       .  A
C2195      C2196   1.405       .  A
C2195      C2202   1.519       .  S
C2196      C2197   1.412       .  A
C2196      H2201   1.082       .  S
C2197      C3302   1.429   1_455  A
C2198      C3301   1.426   1_565  A
C2198      C2199   1.522       .  S
C2199      F2203   1.385       .  S
C2199      F2205   1.383       .  S
C2202      F2206   1.384       .  S
C2202      F2208   1.385       .  S
O2209     Cu2217   1.997       .  S
O2209      C3323   1.274   1_655  A
O2210     Cu2217   1.997       .  S
O2211     Cu3321   2.014   1_545  S
O2212     Cu2217   2.019       .  S
O2213     Cu3322   2.002       .  S
O2213      C2222   1.278       .  A
O2214     Cu2218   2.015       .  S
O2214      C2221   1.277       .  A
O2215     Cu2218   2.004       .  S
O2215      C3324   1.276       .  A
O2216     Cu2218   2.004       .  S
Cu2217     O3315   2.015       .  S
Cu2218     O3317   2.016   1_545  S
C2219      O3313   1.276   1_445  A
C2219      C3285   1.490       .  S
C2220      O3319   1.278       .  A
C2220      C4402   1.473       .  S
O2223     Cu2231   2.008       .  S
O2223      C2233   1.279   1_655  A
O2224     Cu2231   2.005       .  S
O2224      C2234   1.276   1_655  A
O2225     Cu2231   2.016       .  S
O2225      C2235   1.278   1_655  A
O2226     Cu2231   2.015       .  S
O2226      C2236   1.279   1_655  A
O2227     Cu2232   2.014       .  S
O2228     Cu2232   2.012       .  S
O2229     Cu2232   2.011       .  S
O2230     Cu2232   2.010       .  S
C2233      C3234   1.495       .  S
C2234      C3218   1.484       .  S
C2235      C3269   1.493       .  S
C2236      C3250   1.500       .  S
O2237     Cu2245   2.023       .  S
O2237      C2247   1.280       .  A
O2238     Cu2245   2.012       .  S
O2238      C2248   1.277       .  A
O2239     Cu3349   2.003   1_545  S
O2239      C2249   1.275       .  A
O2240     Cu2245   2.001       .  S
O2240      C2250   1.274       .  A
O2241     Cu3350   2.026       .  S
O2241      C2250   1.282       .  A
O2242     Cu2246   2.017       .  S
O2242      C2249   1.280       .  A
O2243     Cu2246   1.999       .  S
O2243      C3352   1.277   1_545  A
O2244     Cu2246   1.998       .  S
O2244      C3351   1.275   1_545  A
Cu2245     O3343   1.999       .  S
Cu2245    Cu3350   2.366       .  S
Cu2246     O3345   2.018   1_545  S
Cu2246    Cu3349   2.365   1_545  S
C2247      O3348   1.276       .  A
C2247      C3189   1.485       .  S
C2248      O3347   1.277       .  A
C2248      C3205   1.483       .  S
C2249      C3173   1.487       .  S
C2250      C3154   1.501       .  S
O2251     Cu2259   2.005       .  S
O2251      C2261   1.276       .  A
O2252     Cu2259   2.013       .  S
O2252      C2262   1.277       .  A
O2253     Cu2259   2.021       .  S
O2253      C2263   1.280       .  A
O2254     Cu2259   2.024       .  S
O2254      C2264   1.281       .  A
O2255     Cu2260   2.005       .  S
O2255      C2264   1.275       .  A
O2256     Cu2260   2.001       .  S
O2256      C2263   1.275       .  A
O2257     Cu2260   2.009       .  S
O2257      C2262   1.279       .  A
O2258     Cu2260   2.009       .  S
O2258      C2261   1.277       .  A
Cu2259    Cu2260   2.368       .  S
C2261      C3138   1.469       .  S
C2262      C3122   1.487       .  S
C2263      C3170   1.488       .  S
C2264      C3157   1.498       .  S
O2265      C2275   1.276       .  A
O2266     Cu2273   2.005       .  S
O2266      C2276   1.276       .  A
O2267     Cu2273   2.012       .  S
O2267      C2277   1.280       .  A
O2268     Cu2273   2.013       .  S
O2268      C2278   1.278       .  A
O2269     Cu2274   1.997       .  S
O2270     Cu2274   1.998       .  S
O2271      C3380   1.277       .  A
O2272     Cu2274   2.001       .  S
O2272      C3379   1.277       .  A
C2275      O3376   1.279   1_545  A
C2275      C3090   1.485       .  S
C2276      O3375   1.278   1_545  A
C2276      C3109   1.477       .  S
C2277      C3301   1.493       .  S
C2278      C3074   1.481       .  S
O2279     Cu2287   2.006       .  S
O2279      C2289   1.278       .  A
O2280      C2290   1.276       .  A
O2281     Cu2287   2.031       .  S
O2281      C2291   1.280       .  A
O2282     Cu2287   2.026       .  S
O2282      C2292   1.279       .  A
O2283     Cu2288   1.995       .  S
O2284     Cu2288   2.000       .  S
O2285     Cu2288   2.002       .  S
O2285      C2290   1.278       .  A
O2286      C2289   1.276       .  A
C2289      C3042   1.481       .  S
C2290      C3058   1.481       .  S
C2291      C3029   1.486       .  S
C2292      C3237   1.485       .  S
O2293     Cu2301   1.998       .  S
O2293      C3407   1.277       .  A
O2294     Cu2301   1.999       .  S
O2294      C3408   1.275       .  A
O2295     Cu2301   2.006       .  S
O2295      C3409   1.277       .  A
O2296     Cu2301   2.003       .  S
O2296      C3410   1.276       .  A
O2297     Cu2302   2.013       .  S
O2297      C2306   1.279       .  A
O2298     Cu2302   2.012       .  S
O2298      C2305   1.278       .  A
O2299     Cu2302   2.021       .  S
O2299      C2304   1.280       .  A
O2300     Cu2302   2.015       .  S
O2300      C2303   1.277       .  A
Cu2301    Cu3406   2.368       .  S
Cu2302    Cu3405   2.367   1_545  S
C2303      O3397   1.278   1_545  A
C2303      C3202   1.489       .  S
C2304      O3398   1.275   1_545  A
C2304      C3013   1.495       .  S
C2305      O3399   1.276   1_545  A
C2305      C3106   1.477       .  S
C2306      O3400   1.276   1_545  A
C2306      C3093   1.486       .  S
O2307     Cu2315   2.013       .  S
O2307      C2317   1.280       .  A
O2308     Cu2315   2.016       .  S
O2308      C2318   1.278       .  A
O2309     Cu2315   1.998       .  S
O2309      C2319   1.277       .  A
O2310     Cu2315   2.000       .  S
O2310      C2320   1.275       .  A
O2311     Cu2316   2.004       .  S
O2311      C2320   1.278       .  A
O2312     Cu2316   2.007       .  S
O2312      C2319   1.277       .  A
O2313     Cu2316   2.007       .  S
O2313      C2318   1.278       .  A
O2314     Cu2316   2.005       .  S
O2314      C2317   1.275       .  A
Cu2315    Cu2316   2.367       .  S
C2317      C3141   1.491       .  S
C2318      C2994   1.485       .  S
C2319      C3061   1.483       .  S
C2320      C3045   1.481       .  S
O2321     Cu3433   2.004       .  S
O2322     Cu2329   2.019       .  S
O2323     Cu2329   2.005       .  S
O2324     Cu2329   2.008       .  S
O2325     Cu2330   2.014       .  S
O2325      C3438   1.279       .  A
O2326     Cu2330   2.013       .  S
O2326      C3437   1.279   1_655  A
O2327     Cu3434   2.020   1_545  S
O2327      C2332   1.279   1_655  A
O2328     Cu2330   2.024       .  S
O2328      C2331   1.279       .  A
Cu2329     O3425   2.020   1_545  S
Cu2330     O3431   2.018       .  S
C2331      C2949   1.492       .  S
C2332      C2965   1.494       .  S
C2333      O3430   1.279   1_445  A
C2333      C3282   1.492       .  S
C2334      O3429   1.280   1_445  A
O2335     Cu2343   2.013       .  S
O2336     Cu2343   2.014       .  S
O2337     Cu2343   2.007       .  S
O2338     Cu2343   2.007       .  S
O2339     Cu2344   2.018       .  S
O2339      C2348   1.278   1_655  A
O2340     Cu2344   2.017       .  S
O2340      C2347   1.279   1_655  A
O2341     Cu2344   2.022       .  S
O2341      C2346   1.280   1_655  A
O2342     Cu2344   2.022       .  S
O2342      C2345   1.278   1_655  A
C2345      C2962   1.494       .  S
C2346      C2946   1.495       .  S
C2347      C3221   1.486       .  S
C2348      C2930   1.493       .  S
O2349     Cu2357   2.013       .  S
O2349      C3463   1.280       .  A
O2350     Cu2357   2.017       .  S
O2350      C3464   1.278       .  A
O2351     Cu3461   2.014   1_545  S
O2351      C2361   1.279       .  A
O2352     Cu2357   2.006       .  S
O2352      C2362   1.276       .  A
O2353     Cu3462   2.022       .  S
O2353      C2362   1.279       .  A
O2354     Cu2358   2.021       .  S
O2354      C2361   1.278       .  A
O2355     Cu2358   2.009       .  S
O2355      C2360   1.278   1_545  A
O2356     Cu2358   2.007       .  S
O2356      C2359   1.276   1_545  A
Cu2357     O3455   2.012       .  S
Cu2357    Cu3462   2.366       .  S
Cu2358     O3457   2.015   1_545  S
Cu2358    Cu3461   2.368   1_545  S
C2359      O3453   1.280       .  A
C2359      C2914   1.487       .  S
C2360      O3454   1.278       .  A
C2360      C3186   1.483       .  S
C2361      C2901   1.490       .  S
C2362      C2885   1.483       .  S
O2363     Cu2371   2.019       .  S
O2363      C2373   1.279       .  A
O2364     Cu2371   2.012       .  S
O2364      C2374   1.277       .  A
O2365     Cu2371   2.008       .  S
O2365      C2375   1.277       .  A
O2366     Cu2371   2.015       .  S
O2366      C2376   1.277       .  A
O2367     Cu2372   2.011       .  S
O2367      C2376   1.280       .  A
O2368     Cu2372   2.013       .  S
O2368      C2375   1.278       .  A
O2369     Cu2372   2.012       .  S
O2369      C2374   1.278       .  A
O2370     Cu2372   2.016       .  S
O2370      C2373   1.277       .  A
Cu2371    Cu2372   2.366       .  S
C2373      C2898   1.492       .  S
C2374      C2882   1.482       .  S
C2375      C3125   1.486       .  S
C2376      C2869   1.497       .  S
O2377      C2387   1.281       .  A
O2378     Cu3489   2.013       .  S
O2378      C2388   1.278       .  A
O2379     Cu2385   2.021       .  S
O2380     Cu2385   2.023       .  S
O2381     Cu2386   2.005       .  S
O2381      C3494   1.278       .  A
O2382     Cu2386   2.004       .  S
O2382      C3493   1.278       .  A
O2383      C2388   1.276       .  A
O2384     Cu3490   2.014   1_545  S
O2384      C2387   1.277       .  A
Cu2385     O3482   2.014   1_545  S
Cu2386     O3488   2.011       .  S
C2387      C2834   1.500       .  S
C2388      C2818   1.480       .  S
C2389      O3486   1.278   1_545  A
C2389      C2978   1.482       .  S
C2390      O3485   1.277   1_545  A
C2390      C2850   1.481       .  S
O2391     Cu2399   2.017       .  S
O2392     Cu2399   2.017       .  S
O2393     Cu2399   2.026       .  S
O2393      C2403   1.281       .  A
O2394      C2404   1.280       .  A
O2395     Cu2400   2.005       .  S
O2395      C2404   1.278       .  A
O2396      C2403   1.274       .  A
O2397     Cu2400   2.012       .  S
O2397      C2402   1.278   1_655  A
O2398     Cu2400   2.013       .  S
O2398      C2401   1.279   1_655  A
C2401      C2933   1.496       .  S
C2402      C2802   1.488       .  S
C2403      C2786   1.482       .  S
C2404      C2773   1.494       .  S
O2405     Cu2413   2.015       .  S
O2405      C3519   1.278       .  A
O2406     Cu2413   2.017       .  S
O2406      C3520   1.279       .  A
O2407     Cu2413   2.006       .  S
O2407      C2417   1.276       .  A
O2408     Cu3517   2.021   1_545  S
O2408      C2418   1.279       .  A
O2409     Cu2414   2.025       .  S
O2409      C2418   1.279       .  A
O2410     Cu3518   2.023       .  S
O2410      C2417   1.279       .  A
O2411     Cu2414   2.003       .  S
O2411      C2416   1.275   1_545  A
O2412     Cu2414   2.007       .  S
O2412      C2415   1.277   1_545  A
Cu2413     O3512   2.009       .  S
Cu2413    Cu3518   2.366       .  S
Cu2414     O3514   2.025   1_545  S
Cu2414    Cu3517   2.365   1_545  S
C2415      O3509   1.279       .  A
C2415      C2757   1.484       .  S
C2416      O3510   1.282       .  A
C2416      C2917   1.502       .  S
C2417      C2789   1.484       .  S
C2418      C2770   1.495       .  S
O2419     Cu2427   2.023       .  S
O2419      C2429   1.279       .  A
O2420     Cu2427   2.021       .  S
O2420      C2430   1.279       .  A
O2421     Cu2427   2.009       .  S
O2421      C2431   1.276       .  A
O2422     Cu2427   2.006       .  S
O2422      C2432   1.276       .  A
O2423     Cu2428   2.019       .  S
O2423      C2432   1.279       .  A
O2424     Cu2428   2.020       .  S
O2424      C2431   1.280       .  A
O2425     Cu2428   2.004       .  S
O2425      C2430   1.276       .  A
O2426     Cu2428   2.008       .  S
O2426      C2429   1.278       .  A
Cu2427    Cu2428   2.366       .  S
C2429      C2866   1.492       .  S
C2430      C2738   1.486       .  S
C2431      C2837   1.496       .  S
C2432      C2821   1.482       .  S
O2433     Cu2441   2.007       .  S
O2433      C2443   1.278       .  A
O2434     Cu2441   2.007       .  S
O2434      C2444   1.277       .  A
O2435      C2445   1.278       .  A
O2436     Cu2441   2.011       .  S
O2436      C2446   1.280       .  A
O2437      C3550   1.275       .  A
O2438     Cu2442   1.996       .  S
O2438      C3549   1.275       .  A
O2439     Cu2442   2.002       .  S
O2440     Cu2442   2.001       .  S
C2443      C2725   1.481       .  S
C2444      C3077   1.480       .  S
C2445      O3542   1.276   1_545  A
C2445      C2693   1.475       .  S
C2446      O3541   1.274   1_545  A
C2446      C2706   1.497       .  S
O2447     Cu2455   2.003       .  S
O2447      C2457   1.278       .  A
O2448      C2458   1.277       .  A
O2449     Cu2455   2.006       .  S
O2449      C2459   1.279   1_655  A
O2450     Cu2455   2.007       .  S
O2450      C2460   1.277       .  A
O2451     Cu2456   2.020       .  S
O2452     Cu2456   2.025       .  S
O2453     Cu2456   2.005       .  S
O2453      C2458   1.276       .  A
O2454      C2457   1.276       .  A
C2457      C2645   1.485       .  S
C2458      C2658   1.476       .  S
C2459      C2674   1.506       .  S
C2460      C3026   1.484       .  S
O2461     Cu2469   2.005       .  S
O2461      C3575   1.277       .  A
O2462     Cu2469   2.009       .  S
O2462      C3576   1.280       .  A
O2463     Cu2469   2.007       .  S
O2463      C3577   1.278       .  A
O2464     Cu2469   2.004       .  S
O2464      C3578   1.276       .  A
O2465     Cu2470   2.022       .  S
O2465      C2474   1.279       .  A
O2466     Cu2470   2.018       .  S
O2466      C2473   1.277       .  A
O2467     Cu2470   2.011       .  S
O2467      C2472   1.276       .  A
O2468     Cu2470   2.004       .  S
O2468      C2471   1.276       .  A
Cu2469    Cu3574   2.370       .  S
Cu2470    Cu3573   2.367   1_545  S
C2471      O3565   1.277   1_545  A
C2471      C2690   1.473       .  S
C2472      O3566   1.279   1_545  A
C2472      C2709   1.499       .  S
C2473      O3567   1.279   1_545  A
C2473      C3010   1.497       .  S
C2474      O3568   1.277   1_545  A
C2474      C2629   1.477       .  S
O2475     Cu2483   2.029       .  S
O2475      C2485   1.281       .  A
O2476     Cu2483   2.030       .  S
O2476      C2486   1.282       .  A
O2477     Cu2483   2.003       .  S
O2477      C2487   1.276       .  A
O2478     Cu2483   2.010       .  S
O2478      C2488   1.277       .  A
O2479     Cu2484   1.999       .  S
O2479      C2488   1.277       .  A
O2480     Cu2484   1.999       .  S
O2480      C2487   1.277       .  A
O2481     Cu2484   1.999       .  S
O2481      C2486   1.274       .  A
O2482     Cu2484   1.998       .  S
O2482      C2485   1.275       .  A
Cu2483    Cu2484   2.366       .  S
C2485      C2997   1.485       .  S
C2486      C2610   1.502       .  S
C2487      C2661   1.477       .  S
C2488      C2642   1.484       .  S
O2489     Cu2497   2.007       .  S
O2490     Cu2497   2.002       .  S
O2491      C2501   1.277       .  A
O2492     Cu3601   2.017   1_545  S
O2492      C2502   1.277       .  A
O2493      C2502   1.280       .  A
O2494     Cu3602   2.027       .  S
O2494      C2501   1.280       .  A
O2495     Cu2498   2.016       .  S
O2495      C2500   1.278       .  A
O2496     Cu2498   2.009       .  S
O2496      C3603   1.276       .  A
Cu2497     O3596   2.008       .  S
Cu2498     O3598   2.009   1_545  S
C2499      O3600   1.276       .  A
C2499      C2722   1.493       .  S
C2500      C2853   1.481       .  S
C2501      C2578   1.485       .  S
C2502      C2594   1.496       .  S
O2503      C2513   1.280       .  A
O2504     Cu2511   2.017   1_655  S
O2504      C2514   1.279       .  A
O2505     Cu2511   2.011       .  S
O2505      C2515   1.279       .  A
O2506     Cu2511   2.011       .  S
O2506      C2516   1.277       .  A
O2507     Cu2512   2.024       .  S
O2508     Cu2512   2.030       .  S
O2509      C2514   1.279       .  A
O2510     Cu2512   2.014       .  S
O2510      C2513   1.276       .  A
C2513      C2562   1.501       .  S
C2514      C2546   1.489       .  S
C2515      C2805   1.490       .  S
C2516      C2677   1.482       .  S
O2517     Cu2525   2.016       .  S
O2517      C2527   1.278       .  A
O2518     Cu3629   2.024       .  S
O2518      C2528   1.279       .  A
O2519     Cu2525   2.014       .  S
O2519      C2529   1.277   1_545  A
O2520     Cu2525   2.012       .  S
O2520      C2530   1.279       .  A
O2521     Cu2526   2.023       .  S
O2521      C3634   1.279       .  A
O2522     Cu2526   2.028       .  S
O2522      C3633   1.281       .  A
O2523     Cu2526   1.997       .  S
O2523      C2528   1.277       .  A
O2524     Cu3630   2.026   1_545  S
O2524      C2527   1.280       .  A
Cu2525     O3622   2.007   1_545  S
Cu2525    Cu3630   2.364   1_545  S
Cu2526     O3628   1.994       .  S
Cu2526    Cu3629   2.364       .  S
C2527      C2549   1.491       .  S
C2528      C2565   1.499       .  S
C2529      O3626   1.278       .  A
C2529      C2754   1.484       .  S
C2530      O3625   1.278   1_545  A
C2530      C2626   1.493       .  S
O2531     Cu2539   2.009       .  S
O2531      C2541   1.278       .  A
O2532     Cu2539   2.013       .  S
O2532      C2542   1.277       .  A
O2533     Cu2539   2.031       .  S
O2533      C2543   1.281       .  A
O2534     Cu2539   2.023       .  S
O2534      C2544   1.280       .  A
O2535     Cu2540   2.008       .  S
O2535      C2544   1.276       .  A
O2536     Cu2540   2.011       .  S
O2536      C2543   1.277       .  A
O2537     Cu2540   2.018       .  S
O2537      C2542   1.279       .  A
O2538     Cu2540   2.022       .  S
O2538      C2541   1.278       .  A
Cu2539    Cu2540   2.367       .  S
C2541      C2741   1.489       .  S
C2542      C2613   1.484       .  S
C2543      C2581   1.488       .  S
C2544      C2597   1.495       .  S
C2545      C2546   1.404       .  A
C2545      C2550   1.409       .  A
C2545      H2552   1.083       .  S
C2546      C2547   1.419       .  A
C2547      C2548   1.412       .  A
C2547      C2554   1.519       .  S
C2548      C2549   1.406       .  A
C2548      H2553   1.083       .  S
C2549      C2550   1.421       .  A
C2550      C2551   1.520       .  S
C2551      F2555   1.385       .  S
C2551      F2556   1.383       .  S
C2551      F2557   1.383       .  S
C2554      F2558   1.384       .  S
C2554      F2559   1.382       .  S
C2554      F2560   1.385       .  S
C2561      C2562   1.410       .  A
C2561      C2566   1.410       .  A
C2561      H2568   1.082       .  S
C2562      C2563   1.424       .  A
C2563      C2564   1.408       .  A
C2563      C2570   1.523       .  S
C2564      C2565   1.409       .  A
C2564      H2569   1.082       .  S
C2565      C2566   1.422       .  A
C2566      C2567   1.521       .  S
C2567      F2571   1.385       .  S
C2567      F2572   1.384       .  S
C2567      F2573   1.383       .  S
C2570      F2574   1.383       .  S
C2570      F2575   1.382       .  S
C2570      F2576   1.385       .  S
C2577      C2578   1.403       .  A
C2577      C2582   1.411       .  A
C2577      H2584   1.083       .  S
C2578      C2579   1.419       .  A
C2579      C2580   1.410       .  A
C2579      C2586   1.519       .  S
C2580      C2581   1.404       .  A
C2580      H2585   1.083       .  S
C2581      C2582   1.420       .  A
C2582      C2583   1.518       .  S
C2583      F2587   1.385       .  S
C2583      F2588   1.382       .  S
C2583      F2589   1.382       .  S
C2586      F2590   1.384       .  S
C2586      F2591   1.382       .  S
C2586      F2592   1.384       .  S
C2593      C2594   1.406       .  A
C2593      C2598   1.408       .  A
C2593      H2600   1.082       .  S
C2594      C2595   1.423       .  A
C2595      C2596   1.411       .  A
C2595      C2602   1.521       .  S
C2596      C2597   1.407       .  A
C2596      H2601   1.082       .  S
C2597      C2598   1.423       .  A
C2598      C2599   1.522       .  S
C2599      F2603   1.385       .  S
C2599      F2604   1.383       .  S
C2599      F2605   1.384       .  S
C2602      F2606   1.384       .  S
C2602      F2607   1.383       .  S
C2602      F2608   1.385       .  S
C2609      C2610   1.410       .  A
C2609      C2614   1.410       .  A
C2609      H2616   1.082       .  S
C2610      C2611   1.430       .  A
C2611      C2612   1.409       .  A
C2611      C2618   1.523       .  S
C2612      C2613   1.399       .  A
C2612      H2617   1.082       .  S
C2613      C2614   1.416       .  A
C2614      C2615   1.519       .  S
C2615      F2619   1.385       .  S
C2615      F2620   1.384       .  S
C2615      F2621   1.382       .  S
C2618      F2622   1.384       .  S
C2618      F2623   1.383       .  S
C2618      F2624   1.385       .  S
C2625      C2626   1.409       .  A
C2625      C2630   1.408       .  A
C2625      H2632   1.083   1_545  S
C2626      C3731   1.424       .  A
C2627      C3730   1.423       .  A
C2627      C2628   1.411       .  A
C2627      C2634   1.519       .  S
C2628      C3733   1.401       .  A
C2628      H2633   1.083       .  S
C2629      C3732   1.401       .  A
C2629      C2630   1.411       .  A
C2630      C2631   1.518       .  S
C2631      F3739   1.385   1_545  S
C2631      F3740   1.383   1_545  S
C2631      F2637   1.383       .  S
C2634      F2638   1.382       .  S
C2634      F3743   1.384       .  S
C2634      F3744   1.385       .  S
F2635      C3735   1.384       .  S
F2636      C3735   1.383       .  S
F2639      C3738   1.383       .  S
F2640      C3738   1.385       .  S
C2641      C2642   1.405       .  A
C2641      C2646   1.406       .  A
C2641      H2648   1.083       .  S
C2642      C2643   1.420       .  A
C2643      C2644   1.406       .  A
C2643      C2650   1.521       .  S
C2644      C2645   1.406       .  A
C2644      H2649   1.083       .  S
C2645      C2646   1.420       .  A
C2646      C2647   1.521       .  S
C2647      F2651   1.385       .  S
C2647      F2652   1.383       .  S
C2647      F2653   1.384       .  S
C2650      F2654   1.383       .  S
C2650      F2655   1.383       .  S
C2650      F2656   1.385       .  S
C2657      C2658   1.403       .  A
C2657      C2662   1.405       .  A
C2657      H2664   1.084       .  S
C2658      C2659   1.418       .  A
C2659      C2660   1.405       .  A
C2659      C2666   1.520       .  S
C2660      C2661   1.403       .  A
C2660      H2665   1.083       .  S
C2661      C2662   1.419       .  A
C2662      C2663   1.520       .  S
C2663      F2667   1.385       .  S
C2663      F2668   1.383       .  S
C2663      F2669   1.383       .  S
C2666      F2670   1.382       .  S
C2666      F2671   1.384       .  S
C2666      F2672   1.385       .  S
C2673      C2674   1.413   1_655  A
C2673      C2678   1.406       .  A
C2673      H2680   1.081       .  S
C2675      C2676   1.412       .  A
C2675      C2682   1.520       .  S
C2676      H2681   1.082       .  S
C2677      C2678   1.411   1_455  A
C2678      C2679   1.519       .  S
C2679      F2683   1.384       .  S
C2679      F2684   1.383       .  S
C2679      F2685   1.382   1_655  S
C2682      F2686   1.384       .  S
C2682      F2687   1.382       .  S
C2682      F2688   1.385       .  S
C2689      C3794   1.401       .  A
C2689      C2694   1.403       .  A
C2689      H2696   1.084       .  S
C2690      C3793   1.401   1_545  A
C2690      C2691   1.417       .  A
C2691      C2692   1.407       .  A
C2691      C2698   1.519       .  S
C2692      C2693   1.403       .  A
C2692      H2697   1.084       .  S
C2693      C3798   1.418   1_545  A
C2694      C3797   1.415       .  A
C2694      C2695   1.519       .  S
C2695      F2699   1.384       .  S
C2695      F2700   1.382       .  S
C2695      F2701   1.382       .  S
C2698      F2702   1.382       .  S
C2698      F2703   1.384       .  S
C2698      F2704   1.384       .  S
C2705      C2706   1.408       .  A
C2705      C2710   1.408       .  A
C2705      H2712   1.081       .  S
C2706      C3811   1.425   1_545  A
C2707      C3810   1.425       .  A
C2707      C2708   1.407       .  A
C2707      C2714   1.524       .  S
C2708      C3813   1.407       .  A
C2708      H2713   1.081       .  S
C2709      C3812   1.408   1_545  A
C2709      C2710   1.425       .  A
C2710      C2711   1.523       .  S
C2711      F2715   1.385       .  S
C2711      F2716   1.382       .  S
C2711      F2717   1.383       .  S
C2714      F2718   1.383       .  S
C2714      F2719   1.383       .  S
C2714      F2720   1.385       .  S
C2721      C2726   1.408       .  A
C2721      H2728   1.082       .  S
C2722      C2723   1.425       .  A
C2723      C2724   1.408       .  A
C2723      C2730   1.522       .  S
C2724      H2729   1.083       .  S
C2725      C2726   1.414   1_545  A
C2726      C2727   1.520       .  S
C2727      F2731   1.384       .  S
C2727      F2732   1.384       .  S
C2727      F3837   1.382       .  S
C2730      F3838   1.383   1_655  S
C2730      F2735   1.383       .  S
C2730      F2736   1.385       .  S
F2733      C3831   1.383       .  S
F2734      C3834   1.384   1_455  S
C2737      C2738   1.405       .  A
C2737      C2742   1.411       .  A
C2737      H2744   1.083       .  S
C2738      C2739   1.420       .  A
C2739      C2740   1.407       .  A
C2739      C2746   1.522       .  S
C2740      C2741   1.404       .  A
C2740      H2745   1.083       .  S
C2741      C2742   1.420       .  A
C2742      C2743   1.519       .  S
C2743      F2747   1.385       .  S
C2743      F2748   1.383       .  S
C2743      F2749   1.384       .  S
C2746      F2750   1.384       .  S
C2746      F2751   1.382       .  S
C2746      F2752   1.385       .  S
C2753      C2754   1.404       .  A
C2753      C2758   1.410       .  A
C2753      H2760   1.083   1_565  S
C2754      C3859   1.419       .  A
C2755      C3858   1.421       .  A
C2755      C2756   1.409       .  A
C2755      C2762   1.521       .  S
C2756      C3861   1.404       .  A
C2756      H2761   1.083       .  S
C2757      C3860   1.404       .  A
C2757      C2758   1.418       .  A
C2758      C2759   1.518   1_565  S
C2759      F2763   1.385       .  S
C2759      F2764   1.382   1_545  S
C2759      F2765   1.383       .  S
C2762      F2766   1.384       .  S
C2762      F2767   1.383       .  S
C2762      F2768   1.385       .  S
C2769      C2770   1.408       .  A
C2769      C2774   1.413       .  A
C2769      H2776   1.083       .  S
C2770      C2771   1.420       .  A
C2771      C2772   1.409       .  A
C2771      C2778   1.520       .  S
C2772      C2773   1.406       .  A
C2772      H2777   1.083       .  S
C2773      C2774   1.420       .  A
C2774      C2775   1.520       .  S
C2775      F2779   1.385       .  S
C2775      F2780   1.382       .  S
C2775      F2781   1.384       .  S
C2778      F2782   1.383       .  S
C2778      F2783   1.383       .  S
C2778      F2784   1.385       .  S
C2785      C2786   1.402       .  A
C2785      C2790   1.407       .  A
C2785      H2792   1.083       .  S
C2786      C2787   1.420       .  A
C2787      C2788   1.409       .  A
C2787      C2794   1.521       .  S
C2788      C2789   1.404       .  A
C2788      H2793   1.081       .  S
C2789      C2790   1.419       .  A
C2790      C2791   1.519       .  S
C2791      F2795   1.385       .  S
C2791      F2796   1.381       .  S
C2791      F2797   1.384       .  S
C2794      F2798   1.384       .  S
C2794      F2799   1.382       .  S
C2794      F2800   1.385       .  S
C2801      C2806   1.415       .  A
C2801      H2808   1.083       .  S
C2802      C2803   1.418   1_455  A
C2803      C2804   1.405       .  A
C2803      C2810   1.520       .  S
C2804      C2805   1.404   1_655  A
C2804      H2809   1.083       .  S
C2806      C2807   1.518       .  S
C2807      F2811   1.385       .  S
C2807      F2812   1.383       .  S
C2807      F2813   1.382       .  S
C2810      F2814   1.382       .  S
C2810      F2815   1.383       .  S
C2810      F2816   1.384       .  S
C2817      C2818   1.402       .  A
C2817      C2822   1.407       .  A
C2817      H2824   1.082       .  S
C2818      C2819   1.418       .  A
C2819      C2820   1.409       .  A
C2819      C2826   1.520       .  S
C2820      C2821   1.404       .  A
C2820      H2825   1.083       .  S
C2821      C2822   1.419       .  A
C2822      C2823   1.520       .  S
C2823      F2827   1.385       .  S
C2823      F2828   1.382       .  S
C2823      F2829   1.383       .  S
C2826      F2830   1.384       .  S
C2826      F2831   1.382       .  S
C2826      F2832   1.385       .  S
C2833      C2834   1.407       .  A
C2833      C2838   1.411       .  A
C2833      H2840   1.083       .  S
C2834      C2835   1.425       .  A
C2835      C2836   1.410       .  A
C2835      C2842   1.521       .  S
C2836      C2837   1.405       .  A
C2836      H2841   1.082       .  S
C2837      C2838   1.423       .  A
C2838      C2839   1.522       .  S
C2839      F2843   1.385       .  S
C2839      F2844   1.384       .  S
C2839      F2845   1.383       .  S
C2842      F2846   1.384       .  S
C2842      F2847   1.383       .  S
C2842      F2848   1.385       .  S
C2849      C2850   1.403       .  A
C2849      C2854   1.406       .  A
C2849      H2856   1.084       .  S
C2851      C2852   1.410       .  A
C2851      C2858   1.518       .  S
C2852      C3957   1.405       .  A
C2852      H2857   1.083       .  S
C2853      C3956   1.405       .  A
C2854      C2855   1.520       .  S
C2855      F2859   1.385       .  S
C2855      F2860   1.384       .  S
C2855      F2861   1.382       .  S
C2858      F2862   1.382       .  S
C2858      F2863   1.382       .  S
C2858      F2864   1.384       .  S
C2865      C2866   1.407       .  A
C2865      C2870   1.411   1_556  A
C2865      H2872   1.082       .  S
C2866      C2867   1.419       .  A
C2867      C2868   1.408   1_556  A
C2867      C2874   1.520       .  S
C2868      C2869   1.408       .  A
C2868      H2873   1.082       .  S
C2869      C2870   1.424       .  A
C2870      C2871   1.521       .  S
C2871      F2875   1.385       .  S
C2871      F2876   1.383       .  S
C2871      F2877   1.383       .  S
C2874      F2878   1.383       .  S
C2874      F2879   1.383       .  S
C2874      F2880   1.385       .  S
C2881      C2882   1.403       .  A
C2881      C2886   1.407       .  A
C2881      H2888   1.083       .  S
C2882      C2883   1.418       .  A
C2883      C2884   1.410       .  A
C2883      C2890   1.519       .  S
C2884      C2885   1.404       .  A
C2884      H2889   1.083       .  S
C2885      C2886   1.420       .  A
C2886      C2887   1.520       .  S
C2887      F2891   1.385       .  S
C2887      F2892   1.383       .  S
C2887      F2893   1.382       .  S
C2890      F2894   1.382       .  S
C2890      F2895   1.384       .  S
C2890      F2896   1.385       .  S
C2897      C2898   1.406       .  A
C2897      C2902   1.410       .  A
C2897      H2904   1.083       .  S
C2898      C2899   1.422       .  A
C2899      C2900   1.409       .  A
C2899      C2906   1.521       .  S
C2900      C2901   1.405       .  A
C2900      H2905   1.083       .  S
C2901      C2902   1.420       .  A
C2902      C2903   1.520       .  S
C2903      F2907   1.385       .  S
C2903      F2908   1.384       .  S
C2903      F2909   1.382       .  S
C2906      F2910   1.383       .  S
C2906      F2911   1.383       .  S
C2906      F2912   1.385       .  S
C2913      C4018   1.406       .  A
C2913      C2918   1.407   1_554  A
C2913      H2920   1.082       .  S
C2914      C4017   1.401       .  A
C2914      C2915   1.419       .  A
C2915      C2916   1.410   1_554  A
C2915      C2922   1.521       .  S
C2916      C2917   1.408       .  A
C2916      H2921   1.082       .  S
C2917      C4022   1.429       .  A
C2918      C4021   1.420       .  A
C2918      C2919   1.519       .  S
C2919      F2923   1.385       .  S
C2919      F2924   1.382       .  S
C2919      F2925   1.382       .  S
C2922      F2926   1.384       .  S
C2922      F2927   1.382       .  S
C2922      F2928   1.385       .  S
C2929      C2934   1.407   1_554  A
C2929      H2936   1.083       .  S
C2930      C2931   1.420   1_455  A
C2931      C2932   1.411   1_554  A
C2931      C2938   1.520       .  S
C2932      C2933   1.408   1_655  A
C2932      H2937   1.083       .  S
C2934      C2935   1.521       .  S
C2935      F2939   1.385   1_556  S
C2935      F2940   1.383       .  S
C2935      F2941   1.383       .  S
C2938      F2942   1.384       .  S
C2938      F2943   1.383       .  S
C2938      F2944   1.385       .  S
C2945      C2946   1.408   1_655  A
C2945      C2950   1.412       .  A
C2945      H2952   1.083       .  S
C2947      C2948   1.408       .  A
C2947      C2954   1.521       .  S
C2948      H2953   1.083       .  S
C2949      C2950   1.420       .  A
C2950      C2951   1.520       .  S
C2951      F2955   1.385       .  S
C2951      F2956   1.384       .  S
C2951      F2957   1.383       .  S
C2954      F2958   1.383       .  S
C2954      F2959   1.383       .  S
C2954      F2960   1.385       .  S
C2961      C2966   1.410       .  A
C2961      H2968   1.083       .  S
C2962      C2963   1.421   1_455  A
C2963      C2964   1.412       .  A
C2963      C2970   1.520       .  S
C2964      C2965   1.407   1_655  A
C2964      H2969   1.083       .  S
C2966      C2967   1.521       .  S
C2967      F2971   1.385       .  S
C2967      F2972   1.384       .  S
C2967      F2973   1.383       .  S
C2970      F2974   1.382       .  S
C2970      F2975   1.384       .  S
C2970      F2976   1.385       .  S
C2977      C2982   1.408   1_556  A
C2977      H2984   1.082       .  S
C2978      C2979   1.414       .  A
C2979      C2980   1.408   1_556  A
C2979      C2986   1.520   1_545  S
C2980      C2981   1.411       .  A
C2980      H2985   1.082   1_545  S
C2982      C2983   1.521       .  S
C2983      F2987   1.384       .  S
C2983      F2988   1.384       .  S
C2986      F2991   1.382   1_565  S
C2986      F2992   1.385       .  S
C2993      C2994   1.404       .  A
C2993      C2998   1.407       .  A
C2993      H3000   1.083       .  S
C2994      C2995   1.420       .  A
C2995      C2996   1.411       .  A
C2995      C3002   1.520       .  S
C2996      C2997   1.405       .  A
C2996      H3001   1.083       .  S
C2997      C2998   1.420       .  A
C2998      C2999   1.521       .  S
C2999      F3003   1.385       .  S
C2999      F3004   1.383       .  S
C2999      F3005   1.382       .  S
C3002      F3006   1.382       .  S
C3002      F3007   1.384       .  S
C3002      F3008   1.384       .  S
C3009      C4114   1.404       .  A
C3009      C3014   1.407       .  A
C3009      H3016   1.083       .  S
C3010      C4113   1.406   1_545  A
C3010      C3011   1.423       .  A
C3011      C3012   1.411       .  A
C3011      C3018   1.520       .  S
C3012      C3013   1.407       .  A
C3012      H3017   1.082       .  S
C3013      C4118   1.423   1_545  A
C3014      C4117   1.419       .  A
C3014      C3015   1.521       .  S
C3015      F3019   1.385       .  S
C3015      F3020   1.384       .  S
C3015      F3021   1.382       .  S
C3018      F3022   1.383       .  S
C3018      F3023   1.382       .  S
C3018      F3024   1.385       .  S
C3025      C3026   1.407   1_455  A
C3025      C3030   1.411       .  A
C3025      H3032   1.083       .  S
C3027      C3028   1.406       .  A
C3027      C3034   1.519       .  S
C3028      H3033   1.078       .  S
C3029      C3030   1.418   1_655  A
C3030      C3031   1.519       .  S
C3031      F3035   1.385       .  S
C3031      F3036   1.384       .  S
C3031      F3037   1.382   1_455  S
C3034      F3038   1.382       .  S
C3034      F3039   1.384       .  S
C3034      F3040   1.385       .  S
C3041      C3042   1.404       .  A
C3041      C3046   1.407       .  A
C3041      H3048   1.083       .  S
C3042      C3043   1.418       .  A
C3043      C3044   1.403       .  A
C3043      C3050   1.518       .  S
C3044      C3045   1.403       .  A
C3044      H3049   1.083       .  S
C3045      C3046   1.420       .  A
C3046      C3047   1.521       .  S
C3047      F3051   1.385       .  S
C3047      F3052   1.384       .  S
C3047      F3053   1.383       .  S
C3050      F3054   1.382       .  S
C3050      F3055   1.381       .  S
C3050      F3056   1.385       .  S
C3057      C3058   1.403       .  A
C3057      C3062   1.405       .  A
C3057      H3064   1.083       .  S
C3058      C3059   1.419       .  A
C3059      C3060   1.406       .  A
C3059      C3066   1.521       .  S
C3060      C3061   1.406       .  A
C3060      H3065   1.083       .  S
C3061      C3062   1.420       .  A
C3062      C3063   1.520       .  S
C3063      F3067   1.385       .  S
C3063      F3068   1.383       .  S
C3063      F3069   1.383       .  S
C3066      F3070   1.384       .  S
C3066      F3071   1.383       .  S
C3066      F3072   1.385       .  S
C3073      C3078   1.403       .  A
C3073      H3080   1.084       .  S
C3074      C3075   1.418       .  A
C3075      C3076   1.408       .  A
C3075      C3082   1.520       .  S
C3076      C3077   1.405       .  A
C3076      H3081   1.083       .  S
C3078      C3079   1.520       .  S
C3079      F3083   1.385       .  S
C3079      F3084   1.383       .  S
C3079      F3085   1.382       .  S
C3082      F3086   1.383       .  S
C3082      F3087   1.384       .  S
C3082      F3088   1.385       .  S
C3089      C3090   1.403   1_565  A
C3089      C3094   1.406       .  A
C3089      H3096   1.090       .  S
C3090      C4195   1.422       .  A
C3091      C4194   1.418       .  A
C3091      C3092   1.407       .  A
C3091      C3098   1.521       .  S
C3092      C4197   1.405       .  A
C3092      H3097   1.080       .  S
C3093      C4196   1.404       .  A
C3093      C3094   1.421   1_545  A
C3094      C3095   1.520       .  S
C3095      F4203   1.385       .  S
C3095      F4204   1.384       .  S
C3095      F3101   1.383       .  S
C3098      F3102   1.385       .  S
C3098      F4207   1.382       .  S
C3098      F4208   1.384       .  S
F3099      C4199   1.385       .  S
F3100      C4199   1.384       .  S
F3103      C4202   1.383       .  S
F3104      C4202   1.384       .  S
C3105      C3106   1.403       .  A
C3105      C3110   1.408       .  A
C3105      H3112   1.084       .  S
C3106      C4211   1.417   1_545  A
C3107      C4210   1.418       .  A
C3107      C3108   1.405       .  A
C3107      C3114   1.520       .  S
C3108      C4213   1.404       .  A
C3108      H3113   1.083       .  S
C3109      C4212   1.402   1_545  A
C3109      C3110   1.418       .  A
C3110      C3111   1.520       .  S
C3111      F3115   1.385       .  S
C3111      F3116   1.382       .  S
C3111      F3117   1.384       .  S
C3114      F3118   1.384       .  S
C3114      F3119   1.383       .  S
C3114      F3120   1.385       .  S
C3121      C3122   1.404       .  A
C3121      C3126   1.405       .  A
C3121      H3128   1.082       .  S
C3122      C3123   1.420       .  A
C3123      C3124   1.411       .  A
C3123      C3130   1.520       .  S
C3124      C3125   1.406       .  A
C3124      H3129   1.083       .  S
C3125      C3126   1.419       .  A
C3126      C3127   1.521       .  S
C3127      F3131   1.385       .  S
C3127      F3132   1.382       .  S
C3127      F3133   1.384       .  S
C3130      F3134   1.384       .  S
C3130      F3135   1.383       .  S
C3130      F3136   1.385       .  S
C3137      C3138   1.397       .  A
C3137      C3142   1.408       .  A
C3137      H3144   1.083       .  S
C3138      C3139   1.410       .  A
C3139      C3140   1.405       .  A
C3139      C3146   1.518       .  S
C3140      C3141   1.409       .  A
C3140      H3145   1.083       .  S
C3141      C3142   1.427       .  A
C3142      C3143   1.521       .  S
C3143      F3147   1.383       .  S
C3143      F3148   1.383       .  S
C3143      F3149   1.385       .  S
C3146      F3150   1.383       .  S
C3146      F3151   1.382       .  S
C3146      F3152   1.385       .  S
C3153      C3154   1.407       .  A
C3153      C3158   1.409       .  A
C3153      H3160   1.082       .  S
C3154      C3155   1.427       .  A
C3155      C3156   1.410       .  A
C3155      C3162   1.523       .  S
C3156      C3157   1.405       .  A
C3156      H3161   1.082       .  S
C3157      C3158   1.424       .  A
C3158      C3159   1.522       .  S
C3159      F3163   1.385       .  S
C3159      F3164   1.383       .  S
C3159      F3165   1.384       .  S
C3162      F3166   1.383       .  S
C3162      F3167   1.384       .  S
C3162      F3168   1.385       .  S
C3169      C3170   1.404       .  A
C3169      C3174   1.408       .  A
C3169      H3176   1.082       .  S
C3170      C3171   1.421       .  A
C3171      C3172   1.407       .  A
C3171      C3178   1.520       .  S
C3172      C3173   1.403       .  A
C3172      H3177   1.083       .  S
C3173      C3174   1.421       .  A
C3174      C3175   1.521       .  S
C3175      F3179   1.385       .  S
C3175      F3180   1.384       .  S
C3175      F3181   1.382       .  S
C3178      F3182   1.383       .  S
C3178      F3183   1.382       .  S
C3178      F3184   1.385       .  S
C3185      C4290   1.404       .  A
C3185      C3190   1.408       .  A
C3185      H3192   1.084       .  S
C3186      C4289   1.403       .  A
C3186      C3187   1.419   1_565  A
C3187      C3188   1.411   1_545  A
C3187      C3194   1.518       .  S
C3188      C4293   1.404       .  A
C3188      H3193   1.083   1_565  S
C3189      C4292   1.404       .  A
C3189      C3190   1.420       .  A
C3190      C3191   1.521       .  S
C3191      F3195   1.385       .  S
C3191      F3196   1.384       .  S
C3191      F4301   1.382       .  S
C3194      F4302   1.382   1_545  S
C3194      F3199   1.383       .  S
C3194      F3200   1.385       .  S
F3197      C4295   1.382       .  S
F3198      C4298   1.382       .  S
C3201      C4306   1.408       .  A
C3201      C3206   1.406       .  A
C3201      H3208   1.082       .  S
C3202      C4305   1.406   1_545  A
C3202      C3203   1.420       .  A
C3203      C3204   1.408       .  A
C3203      C3210   1.521       .  S
C3204      C4309   1.408   1_545  A
C3204      H3209   1.083       .  S
C3205      C4308   1.405       .  A
C3205      C3206   1.416       .  A
C3206      C3207   1.521       .  S
C3207      F3211   1.385       .  S
C3207      F3212   1.384       .  S
C3207      F4317   1.382       .  S
C3210      F4318   1.384       .  S
C3210      F3215   1.383       .  S
C3210      F3216   1.385       .  S
F3213      C4311   1.383       .  S
F3214      C4314   1.384       .  S
C3217      C3222   1.406       .  A
C3217      H3224   1.083       .  S
C3218      C3219   1.420   1_455  A
C3219      C3220   1.409       .  A
C3219      C3226   1.520       .  S
C3220      C3221   1.405   1_655  A
C3220      H3225   1.083       .  S
C3222      C3223   1.520       .  S
C3223      F3227   1.385       .  S
C3223      F3228   1.382       .  S
C3223      F3229   1.383       .  S
C3226      F3230   1.384       .  S
C3226      F3231   1.382       .  S
C3226      F3232   1.385       .  S
C3233      C3238   1.408       .  A
C3233      H3240   1.082       .  S
C3234      C3235   1.424       .  A
C3235      C3236   1.407       .  A
C3235      C3242   1.522       .  S
C3236      C3237   1.404   1_455  A
C3236      H3241   1.083       .  S
C3238      C3239   1.519       .  S
C3239      F3243   1.385       .  S
C3239      F3244   1.383       .  S
C3239      F3245   1.382       .  S
C3242      F3246   1.384       .  S
C3242      F3247   1.383       .  S
C3242      F3248   1.385       .  S
C3249      C3250   1.409   1_655  A
C3249      C3254   1.411       .  A
C3249      H3256   1.082       .  S
C3251      C3252   1.407       .  A
C3251      C3258   1.523       .  S
C3252      H3257   1.081       .  S
C3253      C3254   1.424   1_455  A
C3254      C3255   1.522       .  S
C3255      F3259   1.385       .  S
C3255      F3260   1.383       .  S
C3255      F3261   1.384       .  S
C3258      F3262   1.383       .  S
C3258      F3263   1.383       .  S
C3258      F3264   1.385       .  S
C3265      C3266   1.407   1_655  A
C3265      C3270   1.409       .  A
C3265      H3272   1.082       .  S
C3267      C3268   1.409       .  A
C3267      C3274   1.521       .  S
C3268      H3273   1.083       .  S
C3269      C3270   1.421   1_455  A
C3270      C3271   1.521       .  S
C3271      F3275   1.385       .  S
C3271      F3276   1.383       .  S
C3271      F3277   1.384       .  S
C3274      F3278   1.384       .  S
C3274      F3279   1.383       .  S
C3274      F3280   1.385       .  S
C3281      C4386   1.407   1_655  A
C3281      C3286   1.408       .  A
C3281      H3288   1.083       .  S
C3282      C4385   1.407   1_445  A
C3283      C3284   1.407       .  A
C3283      C3290   1.522       .  S
C3284      H3289   1.082       .  S
C3285      C4390   1.422   1_445  A
C3286      C4389   1.422   1_655  A
C3286      C3287   1.522       .  S
C3287      F3291   1.385       .  S
C3287      F3292   1.383       .  S
C3290      F3295   1.383       .  S
C3290      F3296   1.385       .  S
C3297      C3302   1.407       .  A
C3297      H3304   1.083       .  S
C3298      C3324   1.480       .  S
C3298      C3299   1.416       .  A
C3299      C3300   1.406       .  A
C3299      C3306   1.521       .  S
C3300      C3301   1.408       .  A
C3300      H3305   1.082       .  S
C3302      C3303   1.523       .  S
C3303      F3307   1.385       .  S
C3303      F4412   1.384       .  S
C3303      F3309   1.383       .  S
C3306      F3310   1.384       .  S
C3306      F4415   1.382       .  S
C3306      F3312   1.385       .  S
F3308      C4407   1.384       .  S
F3311      C4410   1.382       .  S
O3313     Cu3321   2.008       .  S
O3314     Cu3321   2.010       .  S
O3316     Cu3321   2.012       .  S
O3317      C3326   1.279       .  A
O3318     Cu3322   1.999       .  S
O3318      C3325   1.274       .  A
O3319     Cu3322   2.013       .  S
O3320     Cu3322   2.017       .  S
C3323      C4389   1.489       .  S
O3327     Cu3335   2.004       .  S
O3327      C3337   1.278   1_655  A
O3328     Cu3335   1.996       .  S
O3328      C3338   1.275   1_655  A
O3329     Cu3335   1.998       .  S
O3329      C3339   1.275   1_655  A
O3330     Cu3335   2.004       .  S
O3330      C3340   1.278   1_655  A
O3331     Cu3336   2.024       .  S
O3332     Cu3336   2.018       .  S
O3333     Cu3336   2.023       .  S
O3334     Cu3336   2.025       .  S
C3337      C4338   1.494       .  S
C3338      C4322   1.483       .  S
C3339      C4373   1.493       .  S
C3340      C4354   1.493       .  S
O3341     Cu3349   2.025       .  S
O3341      C3351   1.279       .  A
O3342     Cu3349   2.018       .  S
O3342      C3352   1.278       .  A
O3343      C3353   1.275       .  A
O3344     Cu3349   2.010       .  S
O3344      C3354   1.275       .  A
O3345      C3354   1.281       .  A
O3346     Cu3350   2.026       .  S
O3346      C3353   1.280       .  A
O3347     Cu3350   2.002       .  S
O3348     Cu3350   2.005       .  S
C3351      C4293   1.480       .  S
C3352      C4309   1.489       .  S
C3353      C4277   1.481       .  S
C3354      C4258   1.503       .  S
O3355     Cu3363   2.006       .  S
O3355      C3365   1.279       .  A
O3356     Cu3363   2.016       .  S
O3356      C3366   1.277       .  A
O3357     Cu3363   2.016       .  S
O3357      C3367   1.278       .  A
O3358     Cu3363   2.016       .  S
O3358      C3368   1.280       .  A
O3359     Cu3364   2.017       .  S
O3359      C3368   1.277       .  A
O3360     Cu3364   2.010       .  S
O3360      C3367   1.277       .  A
O3361     Cu3364   2.018       .  S
O3361      C3366   1.280       .  A
O3362     Cu3364   2.020       .  S
O3362      C3365   1.277       .  A
Cu3363    Cu3364   2.362       .  S
C3365      C4242   1.500       .  S
C3366      C4226   1.491       .  S
C3367      C4274   1.482       .  S
C3368      C4261   1.504       .  S
O3369      C3379   1.277       .  A
O3370     Cu3377   2.008       .  S
O3370      C3380   1.277       .  A
O3371     Cu3377   2.010       .  S
O3371      C3381   1.279       .  A
O3372     Cu3377   2.011       .  S
O3372      C3382   1.277       .  A
O3373     Cu3378   1.998   1_455  S
O3374     Cu3378   2.002       .  S
O3376     Cu3378   2.010       .  S
C3379      C4194   1.482       .  S
C3380      C4213   1.479       .  S
C3381      C4405   1.497       .  S
C3382      C4178   1.477       .  S
O3383     Cu3391   2.012       .  S
O3383      C3393   1.278       .  A
O3384      C3394   1.275       .  A
O3385     Cu3391   2.020       .  S
O3385      C3395   1.278   1_655  A
O3386     Cu3391   2.014       .  S
O3386      C3396   1.277   1_655  A
O3387     Cu3392   2.010       .  S
O3388     Cu3392   1.999       .  S
O3389     Cu3392   2.020       .  S
O3389      C3394   1.279       .  A
O3390      C3393   1.278       .  A
C3393      C4146   1.482       .  S
C3394      C4162   1.478       .  S
C3395      C4133   1.490   1_455  S
C3396      C4341   1.489       .  S
O3397     Cu3405   2.002       .  S
O3398     Cu3405   2.003       .  S
O3399     Cu3405   2.004       .  S
O3400     Cu3405   2.007       .  S
O3401     Cu3406   2.007       .  S
O3401      C3410   1.278       .  A
O3402     Cu3406   2.004       .  S
O3402      C3409   1.277       .  A
O3403     Cu3406   2.019       .  S
O3403      C3408   1.279       .  A
O3404     Cu3406   2.016       .  S
O3404      C3407   1.278       .  A
C3407      C4306   1.491       .  S
C3408      C4117   1.481       .  S
C3409      C4210   1.479       .  S
C3410      C4197   1.483       .  S
O3411     Cu3419   2.006       .  S
O3411      C3421   1.276       .  A
O3412     Cu3419   2.008       .  S
O3412      C3422   1.276       .  A
O3413     Cu3419   2.016       .  S
O3413      C3423   1.279       .  A
O3414     Cu3419   2.014       .  S
O3414      C3424   1.277       .  A
O3415     Cu3420   2.009       .  S
O3415      C3424   1.278       .  A
O3416     Cu3420   2.012       .  S
O3416      C3423   1.277       .  A
O3417     Cu3420   2.015       .  S
O3417      C3422   1.280       .  A
O3418     Cu3420   2.025       .  S
O3418      C3421   1.280       .  A
Cu3419    Cu3420   2.368       .  S
C3421      C4245   1.489       .  S
C3422      C4098   1.494       .  S
C3423      C4165   1.481       .  S
C3424      C4149   1.481       .  S
O3426     Cu3433   2.003       .  S
O3427     Cu3433   2.010       .  S
O3428     Cu3433   2.008       .  S
O3429     Cu3434   2.016       .  S
O3430     Cu3434   2.008       .  S
O3431      C3436   1.279   1_655  A
O3432     Cu3434   2.017       .  S
O3432      C3435   1.277   1_655  A
C3435      C4053   1.501       .  S
C3436      C4069   1.481       .  S
C3437      C4386   1.493       .  S
O3439     Cu3447   2.011       .  S
O3440     Cu3447   2.020       .  S
O3441     Cu3447   2.009       .  S
O3442     Cu3447   2.005       .  S
O3443     Cu3448   2.007       .  S
O3443      C3452   1.276   1_655  A
O3444     Cu3448   2.000       .  S
O3444      C3451   1.278   1_655  A
O3445     Cu3448   2.012       .  S
O3445      C3450   1.280   1_655  A
O3446     Cu3448   2.007       .  S
O3446      C3449   1.276   1_655  A
C3449      C4066   1.481       .  S
C3450      C4050   1.500       .  S
C3451      C4325   1.483       .  S
C3452      C4034   1.486       .  S
O3453     Cu3461   2.022       .  S
O3454     Cu3461   2.022       .  S
O3455      C3465   1.278       .  A
O3456     Cu3461   2.016       .  S
O3456      C3466   1.277       .  A
O3457      C3466   1.279       .  A
O3458     Cu3462   2.029       .  S
O3458      C3465   1.279       .  A
O3459     Cu3462   2.012       .  S
O3459      C3464   1.278       .  A
O3460     Cu3462   2.012       .  S
O3460      C3463   1.276       .  A
C3463      C4018   1.494       .  S
C3464      C4290   1.485       .  S
C3465      C4005   1.499       .  S
C3466      C3989   1.493       .  S
O3467     Cu3475   2.017       .  S
O3467      C3477   1.279       .  A
O3468     Cu3475   2.015       .  S
O3468      C3478   1.277       .  A
O3469     Cu3475   2.012       .  S
O3469      C3479   1.277       .  A
O3470     Cu3475   2.016       .  S
O3470      C3480   1.278       .  A
O3471     Cu3476   2.024       .  S
O3471      C3480   1.279       .  A
O3472     Cu3476   2.021       .  S
O3472      C3479   1.280       .  A
O3473     Cu3476   2.019       .  S
O3473      C3478   1.280       .  A
O3474     Cu3476   2.027       .  S
O3474      C3477   1.279       .  A
Cu3475    Cu3476   2.364       .  S
C3477      C4002   1.502       .  S
C3478      C3986   1.491       .  S
C3479      C4229   1.490       .  S
C3480      C3973   1.492       .  S
O3481      C3491   1.280       .  A
O3482      C3492   1.279       .  A
O3483     Cu3489   2.022       .  S
O3484     Cu3489   2.021       .  S
O3485     Cu3490   2.008       .  S
O3486     Cu3490   2.011       .  S
O3487      C3492   1.278       .  A
O3488      C3491   1.276       .  A
C3491      C3938   1.502       .  S
C3492      C3922   1.499       .  S
C3493      C4082   1.498       .  S
C3494      C3954   1.489       .  S
O3495     Cu3503   2.007       .  S
O3496     Cu3503   2.009       .  S
O3497     Cu3503   2.022       .  S
O3497      C3507   1.279       .  A
O3498      C3508   1.278       .  A
O3499     Cu3504   2.018       .  S
O3499      C3508   1.280       .  A
O3500      C3507   1.278       .  A
O3501     Cu3504   2.006       .  S
O3501      C3506   1.276   1_655  A
O3502     Cu3504   2.004       .  S
O3502      C3505   1.278   1_655  A
C3505      C4037   1.491       .  S
C3506      C3906   1.494       .  S
C3507      C3890   1.489       .  S
C3508      C3877   1.502       .  S
O3509     Cu3517   2.025       .  S
O3510     Cu3517   2.032       .  S
O3511     Cu3517   2.019       .  S
O3511      C3521   1.278       .  A
O3512      C3522   1.278       .  A
O3513     Cu3518   2.026       .  S
O3513      C3522   1.279       .  A
O3514      C3521   1.279       .  A
O3515     Cu3518   2.012       .  S
O3515      C3520   1.277       .  A
O3516     Cu3518   2.014       .  S
O3516      C3519   1.278       .  A
C3519      C3861   1.487       .  S
C3520      C4021   1.490       .  S
C3521      C3893   1.489       .  S
C3522      C3874   1.500       .  S
O3523     Cu3531   2.030       .  S
O3523      C3533   1.279       .  A
O3524     Cu3531   2.035       .  S
O3524      C3534   1.280       .  A
O3525     Cu3531   2.018       .  S
O3525      C3535   1.277       .  A
O3526     Cu3531   2.022       .  S
O3526      C3536   1.278       .  A
O3527     Cu3532   2.019       .  S
O3527      C3536   1.280       .  A
O3528     Cu3532   2.012       .  S
O3528      C3535   1.280       .  A
O3529     Cu3532   2.005       .  S
O3529      C3534   1.276       .  A
O3530     Cu3532   2.006       .  S
O3530      C3533   1.278       .  A
Cu3531    Cu3532   2.360       .  S
C3533      C3970   1.502       .  S
C3534      C3842   1.490       .  S
C3535      C3941   1.501       .  S
C3536      C3925   1.501       .  S
O3537     Cu3545   2.012       .  S
O3537      C3547   1.279       .  A
O3538     Cu3545   2.012       .  S
O3538      C3548   1.278       .  A
O3539      C3549   1.277       .  A
O3540     Cu3545   2.007       .  S
O3540      C3550   1.279       .  A
O3542     Cu3546   2.003       .  S
O3543     Cu3546   2.009       .  S
O3544     Cu3546   2.006       .  S
C3547      C3829   1.488       .  S
C3548      C4181   1.479       .  S
C3549      C3797   1.468       .  S
C3550      C3810   1.499       .  S
O3551     Cu3559   2.007       .  S
O3551      C3561   1.278       .  A
O3552      C3562   1.278       .  A
O3553     Cu3559   2.016       .  S
O3553      C3563   1.280   1_655  A
O3554     Cu3559   2.013       .  S
O3554      C3564   1.278   1_655  A
O3555     Cu3560   2.013       .  S
O3556     Cu3560   2.010       .  S
O3557     Cu3560   2.002       .  S
O3557      C3562   1.274       .  A
O3558      C3561   1.276       .  A
C3561      C3749   1.479       .  S
C3562      C3762   1.492       .  S
C3563      C3778   1.498       .  S
C3564      C4130   1.488   1_455  S
O3565     Cu3573   2.002       .  S
O3566     Cu3573   2.003       .  S
O3567     Cu3573   2.009       .  S
O3568     Cu3573   2.012       .  S
O3569     Cu3574   2.017       .  S
O3569      C3578   1.278       .  A
O3570     Cu3574   2.015       .  S
O3570      C3577   1.278       .  A
O3571     Cu3574   1.998       .  S
O3571      C3576   1.274       .  A
O3572     Cu3574   1.996       .  S
O3572      C3575   1.275       .  A
C3575      C3794   1.469       .  S
C3576      C3813   1.498       .  S
C3577      C4114   1.482       .  S
C3578      C3733   1.472       .  S
O3579     Cu3587   2.025       .  S
O3579      C3589   1.281       .  A
O3580     Cu3587   2.032       .  S
O3580      C3590   1.281       .  A
O3581     Cu3587   1.988       .  S
O3581      C3591   1.273       .  A
O3582     Cu3587   1.998       .  S
O3582      C3592   1.275       .  A
O3583     Cu3588   2.009       .  S
O3583      C3592   1.279       .  A
O3584     Cu3588   2.010       .  S
O3584      C3591   1.279       .  A
O3585     Cu3588   2.000       .  S
O3585      C3590   1.275       .  A
O3586     Cu3588   2.003       .  S
O3586      C3589   1.275       .  A
Cu3587    Cu3588   2.366       .  S
C3589      C4101   1.494       .  S
C3590      C3714   1.483       .  S
C3591      C3765   1.489       .  S
C3592      C3746   1.478       .  S
O3593     Cu3601   2.014       .  S
O3594     Cu3601   2.008       .  S
O3595      C3605   1.279       .  A
O3596      C3606   1.276       .  A
O3597      C3606   1.280       .  A
O3598      C3605   1.277       .  A
O3599     Cu3602   2.018       .  S
O3599      C3604   1.279       .  A
O3600     Cu3602   2.012       .  S
C3603      C3826   1.498       .  S
C3604      C3957   1.488       .  S
C3605      C3682   1.485       .  S
C3606      C3698   1.502       .  S
O3607      C3617   1.279       .  A
O3608     Cu3615   2.003   1_655  S
O3608      C3618   1.278       .  A
O3609     Cu3615   2.004       .  S
O3609      C3619   1.279       .  A
O3610     Cu3615   2.010       .  S
O3610      C3620   1.277       .  A
O3611     Cu3616   2.017       .  S
O3612     Cu3616   2.013       .  S
O3613      C3618   1.277       .  A
O3614     Cu3616   2.020       .  S
O3614      C3617   1.277       .  A
C3617      C3666   1.505       .  S
C3618      C3650   1.492       .  S
C3619      C3909   1.496       .  S
C3620      C3781   1.475       .  S
O3621     Cu3629   2.025       .  S
O3621      C3631   1.279       .  A
O3622      C3632   1.275       .  A
O3623     Cu3629   2.000       .  S
O3623      C3633   1.275       .  A
O3624     Cu3629   1.999       .  S
O3624      C3634   1.277       .  A
O3625     Cu3630   2.023       .  S
O3626     Cu3630   2.020       .  S
O3627     Cu3630   2.024       .  S
O3627      C3632   1.281       .  A
O3628      C3631   1.276       .  A
C3631      C3653   1.492       .  S
C3632      C3669   1.505       .  S
C3633      C3858   1.486       .  S
C3634      C3730   1.488       .  S
O3635     Cu3643   1.998       .  S
O3635      C3645   1.277       .  A
O3636     Cu3643   2.005       .  S
O3636      C3646   1.276       .  A
O3637     Cu3643   2.018       .  S
O3637      C3647   1.280       .  A
O3638     Cu3643   2.019       .  S
O3638      C3648   1.281       .  A
O3639     Cu3644   2.012       .  S
O3639      C3648   1.276       .  A
O3640     Cu3644   2.012       .  S
O3640      C3647   1.277       .  A
O3641     Cu3644   2.032       .  S
O3641      C3646   1.281       .  A
O3642     Cu3644   2.036       .  S
O3642      C3645   1.280       .  A
Cu3643    Cu3644   2.366       .  S
C3645      C3845   1.489       .  S
C3646      C3717   1.481       .  S
C3647      C3685   1.488       .  S
C3648      C3701   1.499       .  S
C3649      C3650   1.407       .  A
C3649      C3654   1.408       .  A
C3649      H3656   1.082       .  S
C3650      C3651   1.422       .  A
C3651      C3652   1.408       .  A
C3651      C3658   1.522       .  S
C3652      C3653   1.408       .  A
C3652      H3657   1.082       .  S
C3653      C3654   1.420       .  A
C3654      C3655   1.521       .  S
C3655      F3659   1.385       .  S
C3655      F3660   1.383       .  S
C3655      F3661   1.384       .  S
C3658      F3662   1.384       .  S
C3658      F3663   1.383       .  S
C3658      F3664   1.385       .  S
C3665      C3666   1.408       .  A
C3665      C3670   1.409       .  A
C3665      H3672   1.081       .  S
C3666      C3667   1.425       .  A
C3667      C3668   1.412       .  A
C3667      C3674   1.522       .  S
C3668      C3669   1.409       .  A
C3668      H3673   1.082       .  S
C3669      C3670   1.427       .  A
C3670      C3671   1.524       .  S
C3671      F3675   1.385       .  S
C3671      F3676   1.383       .  S
C3671      F3677   1.383       .  S
C3674      F3678   1.383       .  S
C3674      F3679   1.383       .  S
C3674      F3680   1.385       .  S
C3681      C3682   1.404       .  A
C3681      C3686   1.410       .  A
C3681      H3688   1.083       .  S
C3682      C3683   1.417       .  A
C3683      C3684   1.409       .  A
C3683      C3690   1.519       .  S
C3684      C3685   1.406       .  A
C3684      H3689   1.083       .  S
C3685      C3686   1.421       .  A
C3686      C3687   1.520       .  S
C3687      F3691   1.385       .  S
C3687      F3692   1.383       .  S
C3687      F3693   1.384       .  S
C3690      F3694   1.384       .  S
C3690      F3695   1.382       .  S
C3690      F3696   1.385       .  S
C3697      C3698   1.408       .  A
C3697      C3702   1.410       .  A
C3697      H3704   1.082       .  S
C3698      C3699   1.426       .  A
C3699      C3700   1.409       .  A
C3699      C3706   1.523       .  S
C3700      C3701   1.406       .  A
C3700      H3705   1.082       .  S
C3701      C3702   1.424       .  A
C3702      C3703   1.522       .  S
C3703      F3707   1.385       .  S
C3703      F3708   1.382       .  S
C3703      F3709   1.384       .  S
C3706      F3710   1.384       .  S
C3706      F3711   1.383       .  S
C3706      F3712   1.385       .  S
C3713      C3714   1.404       .  A
C3713      C3718   1.410       .  A
C3713      H3720   1.083       .  S
C3714      C3715   1.418       .  A
C3715      C3716   1.410       .  A
C3715      C3722   1.520       .  S
C3716      C3717   1.403       .  A
C3716      H3721   1.083       .  S
C3717      C3718   1.416       .  A
C3718      C3719   1.518       .  S
C3719      F3723   1.385       .  S
C3719      F3724   1.382       .  S
C3719      F3725   1.384       .  S
C3722      F3726   1.382       .  S
C3722      F3727   1.384       .  S
C3722      F3728   1.385       .  S
C3729      C3730   1.408       .  A
C3729      C3734   1.405       .  A
C3729      H3736   1.083       .  S
C3731      C3732   1.412       .  A
C3731      C3738   1.520       .  S
C3732      H3737   1.083       .  S
C3733      C3734   1.410       .  A
C3734      C3735   1.518       .  S
C3735      F3741   1.383       .  S
C3738      F3742   1.383   1_545  S
C3745      C3746   1.402       .  A
C3745      C3750   1.405       .  A
C3745      H3752   1.083       .  S
C3746      C3747   1.420       .  A
C3747      C3748   1.406       .  A
C3747      C3754   1.521       .  S
C3748      C3749   1.403       .  A
C3748      H3753   1.083       .  S
C3749      C3750   1.418       .  A
C3750      C3751   1.520       .  S
C3751      F3755   1.385       .  S
C3751      F3756   1.382       .  S
C3751      F3757   1.384       .  S
C3754      F3758   1.384       .  S
C3754      F3759   1.383       .  S
C3754      F3760   1.385       .  S
C3761      C3762   1.406       .  A
C3761      C3766   1.403       .  A
C3761      H3768   1.082       .  S
C3762      C3763   1.423       .  A
C3763      C3764   1.408       .  A
C3763      C3770   1.522       .  S
C3764      C3765   1.406       .  A
C3764      H3769   1.082       .  S
C3765      C3766   1.423       .  A
C3766      C3767   1.524       .  S
C3767      F3771   1.385       .  S
C3767      F3772   1.384       .  S
C3767      F3773   1.383       .  S
C3770      F3774   1.384       .  S
C3770      F3775   1.383       .  S
C3770      F3776   1.385       .  S
C3777      C3778   1.411   1_655  A
C3777      C3782   1.408       .  A
C3777      H3784   1.082       .  S
C3779      C3780   1.408       .  A
C3779      C3786   1.522       .  S
C3780      H3785   1.083       .  S
C3781      C3782   1.412   1_455  A
C3782      C3783   1.519       .  S
C3783      F3787   1.385       .  S
C3783      F3788   1.383       .  S
C3783      F3789   1.383       .  S
C3786      F3790   1.382       .  S
C3786      F3791   1.383       .  S
C3786      F3792   1.385       .  S
C3793      C3798   1.405       .  A
C3793      H3800   1.084       .  S
C3794      C3795   1.416       .  A
C3795      C3796   1.405       .  A
C3795      C3802   1.519       .  S
C3796      C3797   1.401       .  A
C3796      H3801   1.084       .  S
C3798      C3799   1.519       .  S
C3799      F3803   1.385       .  S
C3799      F3804   1.382       .  S
C3799      F3805   1.382       .  S
C3802      F3806   1.382       .  S
C3802      F3807   1.383       .  S
C3802      F3808   1.385       .  S
C3809      C3810   1.408       .  A
C3809      C3814   1.407       .  A
C3809      H3816   1.081       .  S
C3811      C3812   1.406       .  A
C3811      C3818   1.525       .  S
C3812      H3817   1.081       .  S
C3813      C3814   1.425       .  A
C3814      C3815   1.524       .  S
C3815      F3819   1.385       .  S
C3815      F3820   1.383       .  S
C3815      F3821   1.383       .  S
C3818      F3822   1.384       .  S
C3818      F3823   1.383       .  S
C3818      F3824   1.385       .  S
C3825      C3830   1.407       .  A
C3825      H3832   1.083       .  S
C3826      C3827   1.427       .  A
C3827      C3828   1.406       .  A
C3827      C3834   1.522       .  S
C3828      H3833   1.083       .  S
C3829      C3830   1.420       .  A
C3830      C3831   1.520       .  S
C3831      F3835   1.385       .  S
C3831      F3836   1.383       .  S
C3834      F3839   1.383       .  S
C3834      F3840   1.385       .  S
C3841      C3842   1.407       .  A
C3841      C3846   1.416       .  A
C3841      H3848   1.083       .  S
C3842      C3843   1.421       .  A
C3843      C3844   1.405       .  A
C3843      C3850   1.522       .  S
C3844      C3845   1.403       .  A
C3844      H3849   1.083       .  S
C3845      C3846   1.420       .  A
C3846      C3847   1.518       .  S
C3847      F3851   1.385       .  S
C3847      F3852   1.383       .  S
C3847      F3853   1.384       .  S
C3850      F3854   1.383       .  S
C3850      F3855   1.382       .  S
C3850      F3856   1.385       .  S
C3857      C3858   1.403       .  A
C3857      C3862   1.409       .  A
C3857      H3864   1.083       .  S
C3859      C3860   1.408       .  A
C3859      C3866   1.520       .  S
C3860      H3865   1.084       .  S
C3861      C3862   1.420       .  A
C3862      C3863   1.519       .  S
C3863      F3867   1.384       .  S
C3863      F3868   1.383       .  S
C3863      F3869   1.384       .  S
C3866      F3870   1.384       .  S
C3866      F3871   1.382       .  S
C3866      F3872   1.385       .  S
C3873      C3874   1.408       .  A
C3873      C3878   1.411       .  A
C3873      H3880   1.082       .  S
C3874      C3875   1.422       .  A
C3875      C3876   1.411       .  A
C3875      C3882   1.521       .  S
C3876      C3877   1.409       .  A
C3876      H3881   1.082       .  S
C3877      C3878   1.424       .  A
C3878      C3879   1.522       .  S
C3879      F3883   1.385       .  S
C3879      F3884   1.383       .  S
C3879      F3885   1.383       .  S
C3882      F3886   1.384       .  S
C3882      F3887   1.383       .  S
C3882      F3888   1.385       .  S
C3889      C3890   1.404       .  A
C3889      C3894   1.410       .  A
C3889      H3896   1.083       .  S
C3890      C3891   1.421       .  A
C3891      C3892   1.412       .  A
C3891      C3898   1.520       .  S
C3892      C3893   1.405       .  A
C3892      H3897   1.083       .  S
C3893      C3894   1.419       .  A
C3894      C3895   1.519       .  S
C3895      F3899   1.385       .  S
C3895      F3900   1.381       .  S
C3895      F3901   1.384       .  S
C3898      F3902   1.384       .  S
C3898      F3903   1.382       .  S
C3898      F3904   1.385       .  S
C3905      C3910   1.409       .  A
C3905      H3912   1.083       .  S
C3906      C3907   1.422   1_455  A
C3907      C3908   1.406       .  A
C3907      C3914   1.522       .  S
C3908      C3909   1.407   1_655  A
C3908      H3913   1.082       .  S
C3910      C3911   1.520       .  S
C3911      F3915   1.385       .  S
C3911      F3916   1.384       .  S
C3911      F3917   1.382       .  S
C3914      F3918   1.383       .  S
C3914      F3919   1.384       .  S
C3914      F3920   1.385       .  S
C3921      C3922   1.407       .  A
C3921      C3926   1.410       .  A
C3921      H3928   1.082       .  S
C3922      C3923   1.423       .  A
C3923      C3924   1.412       .  A
C3923      C3930   1.521       .  S
C3924      C3925   1.408       .  A
C3924      H3929   1.082       .  S
C3925      C3926   1.424       .  A
C3926      C3927   1.520       .  S
C3927      F3931   1.384       .  S
C3927      F3932   1.383       .  S
C3927      F3933   1.383       .  S
C3930      F3934   1.384       .  S
C3930      F3935   1.383       .  S
C3930      F3936   1.385       .  S
C3937      C3938   1.409       .  A
C3937      C3942   1.412       .  A
C3937      H3944   1.082       .  S
C3938      C3939   1.425       .  A
C3939      C3940   1.409       .  A
C3939      C3946   1.523       .  S
C3940      C3941   1.407       .  A
C3940      H3945   1.081       .  S
C3941      C3942   1.424       .  A
C3942      C3943   1.522       .  S
C3943      F3947   1.385       .  S
C3943      F3948   1.384       .  S
C3943      F3949   1.383       .  S
C3946      F3950   1.383       .  S
C3946      F3951   1.384       .  S
C3946      F3952   1.385       .  S
C3953      C3954   1.405       .  A
C3953      C3958   1.406       .  A
C3953      H3960   1.083       .  S
C3955      C3956   1.411       .  A
C3955      C3962   1.519   1_545  S
C3956      H3961   1.083   1_545  S
C3958      C3959   1.521       .  S
C3959      F3963   1.385       .  S
C3959      F3964   1.384       .  S
C3959      F3965   1.383       .  S
C3962      F3966   1.382   1_565  S
C3962      F3967   1.384       .  S
C3962      F3968   1.385       .  S
C3969      C3970   1.409       .  A
C3969      C3974   1.408   1_556  A
C3969      H3976   1.082       .  S
C3970      C3971   1.426       .  A
C3971      C3972   1.414   1_556  A
C3971      C3978   1.521       .  S
C3972      C3973   1.406       .  A
C3972      H3977   1.083       .  S
C3973      C3974   1.417       .  A
C3974      C3975   1.520       .  S
C3975      F3979   1.385   1_554  S
C3975      F3980   1.384       .  S
C3975      F3981   1.382       .  S
C3978      F3982   1.384       .  S
C3978      F3983   1.383       .  S
C3978      F3984   1.385       .  S
C3985      C3986   1.405       .  A
C3985      C3990   1.410       .  A
C3985      H3992   1.083       .  S
C3986      C3987   1.421       .  A
C3987      C3988   1.410       .  A
C3987      C3994   1.520       .  S
C3988      C3989   1.406       .  A
C3988      H3993   1.083       .  S
C3989      C3990   1.423       .  A
C3990      C3991   1.521       .  S
C3991      F3995   1.385       .  S
C3991      F3996   1.384       .  S
C3991      F3997   1.383       .  S
C3994      F3998   1.383       .  S
C3994      F3999   1.384       .  S
C3994      F4000   1.385       .  S
C4001      C4002   1.409       .  A
C4001      C4006   1.412       .  A
C4001      H4008   1.083       .  S
C4002      C4003   1.425       .  A
C4003      C4004   1.412       .  A
C4003      C4010   1.521       .  S
C4004      C4005   1.407       .  A
C4004      H4009   1.083       .  S
C4005      C4006   1.422       .  A
C4006      C4007   1.520       .  S
C4007      F4011   1.385       .  S
C4007      F4012   1.384       .  S
C4007      F4013   1.383       .  S
C4010      F4014   1.383       .  S
C4010      F4015   1.383       .  S
C4010      F4016   1.385       .  S
C4017      C4022   1.410   1_554  A
C4017      H4024   1.083   1_565  S
C4018      C4019   1.424       .  A
C4019      C4020   1.410   1_554  A
C4019      C4026   1.521       .  S
C4020      C4021   1.404       .  A
C4020      H4025   1.083       .  S
C4022      C4023   1.522   1_565  S
C4023      F4027   1.385       .  S
C4023      F4028   1.384   1_545  S
C4023      F4029   1.383       .  S
C4026      F4030   1.384       .  S
C4026      F4031   1.383       .  S
C4026      F4032   1.385       .  S
C4033      C4038   1.406   1_554  A
C4033      H4040   1.083       .  S
C4034      C4035   1.419   1_455  A
C4035      C4036   1.408   1_554  A
C4035      C4042   1.520       .  S
C4036      C4037   1.408   1_655  A
C4036      H4041   1.082       .  S
C4038      C4039   1.522       .  S
C4039      F4043   1.385       .  S
C4039      F4044   1.383       .  S
C4039      F4045   1.384       .  S
C4042      F4046   1.383       .  S
C4042      F4047   1.383       .  S
C4042      F4048   1.385       .  S
C4049      C4050   1.407   1_655  A
C4049      C4054   1.409       .  A
C4049      H4056   1.082       .  S
C4051      C4052   1.412       .  A
C4051      C4058   1.522       .  S
C4052      H4057   1.082       .  S
C4053      C4054   1.424   1_455  A
C4054      C4055   1.522       .  S
C4055      F4059   1.385       .  S
C4055      F4060   1.383       .  S
C4055      F4061   1.383       .  S
C4058      F4062   1.383       .  S
C4058      F4063   1.384       .  S
C4058      F4064   1.385       .  S
C4065      C4070   1.407       .  A
C4065      H4072   1.083       .  S
C4066      C4067   1.419   1_455  A
C4067      C4068   1.408       .  A
C4067      C4074   1.520       .  S
C4068      C4069   1.403   1_655  A
C4068      H4073   1.083       .  S
C4070      C4071   1.520       .  S
C4071      F4075   1.385       .  S
C4071      F4076   1.384       .  S
C4071      F4077   1.382       .  S
C4074      F4078   1.382       .  S
C4074      F4079   1.383       .  S
C4074      F4080   1.384       .  S
C4081      C4086   1.411   1_556  A
C4081      H4088   1.083       .  S
C4082      C4083   1.426       .  A
C4083      C4084   1.410   1_556  A
C4083      C4090   1.521       .  S
C4084      C4085   1.404       .  A
C4084      H4089   1.083       .  S
C4086      C4087   1.522       .  S
C4087      F4091   1.385   1_554  S
C4087      F4092   1.384       .  S
C4090      F4095   1.383       .  S
C4090      F4096   1.385       .  S
C4097      C4098   1.405       .  A
C4097      C4102   1.408       .  A
C4097      H4104   1.082       .  S
C4098      C4099   1.423       .  A
C4099      C4100   1.410       .  A
C4099      C4106   1.522       .  S
C4100      C4101   1.406       .  A
C4100      H4105   1.082       .  S
C4101      C4102   1.423       .  A
C4102      C4103   1.522       .  S
C4103      F4107   1.385       .  S
C4103      F4108   1.384       .  S
C4103      F4109   1.383       .  S
C4106      F4110   1.383       .  S
C4106      F4111   1.384       .  S
C4106      F4112   1.385       .  S
C4113      C4118   1.407       .  A
C4113      H4120   1.082       .  S
C4114      C4115   1.418       .  A
C4115      C4116   1.408       .  A
C4115      C4122   1.519       .  S
C4116      C4117   1.404       .  A
C4116      H4121   1.083       .  S
C4118      C4119   1.522       .  S
C4119      F4123   1.385       .  S
C4119      F4124   1.384       .  S
C4119      F4125   1.383       .  S
C4122      F4126   1.382       .  S
C4122      F4127   1.384       .  S
C4122      F4128   1.385       .  S
C4129      C4130   1.407   1_455  A
C4129      C4134   1.411       .  A
C4129      H4136   1.083       .  S
C4131      C4132   1.406       .  A
C4131      C4138   1.521       .  S
C4132      H4137   1.083       .  S
C4133      C4134   1.421   1_655  A
C4134      C4135   1.520       .  S
C4135      F4139   1.385       .  S
C4135      F4140   1.384       .  S
C4135      F4141   1.383   1_455  S
C4138      F4142   1.382       .  S
C4138      F4143   1.384       .  S
C4138      F4144   1.385       .  S
C4145      C4146   1.404       .  A
C4145      C4150   1.408       .  A
C4145      H4152   1.082       .  S
C4146      C4147   1.418       .  A
C4147      C4148   1.407       .  A
C4147      C4154   1.519       .  S
C4148      C4149   1.403       .  A
C4148      H4153   1.083       .  S
C4149      C4150   1.418       .  A
C4150      C4151   1.519       .  S
C4151      F4155   1.385       .  S
C4151      F4156   1.383       .  S
C4151      F4157   1.382       .  S
C4154      F4158   1.381       .  S
C4154      F4159   1.383       .  S
C4154      F4160   1.385       .  S
C4161      C4162   1.404       .  A
C4161      C4166   1.411       .  A
C4161      H4168   1.079       .  S
C4162      C4163   1.416       .  A
C4163      C4164   1.405       .  A
C4163      C4170   1.521       .  S
C4164      C4165   1.402       .  A
C4164      H4169   1.060       .  S
C4165      C4166   1.418       .  A
C4166      C4167   1.519       .  S
C4167      F4171   1.385       .  S
C4167      F4172   1.382       .  S
C4167      F4173   1.383       .  S
C4170      F4174   1.384       .  S
C4170      F4175   1.382       .  S
C4170      F4176   1.385       .  S
C4177      C4182   1.405       .  A
C4177      H4184   1.083       .  S
C4178      C4179   1.417       .  A
C4179      C4180   1.409       .  A
C4179      C4186   1.519       .  S
C4180      C4181   1.405       .  A
C4180      H4185   1.083       .  S
C4182      C4183   1.520       .  S
C4183      F4187   1.385       .  S
C4183      F4188   1.384       .  S
C4183      F4189   1.382       .  S
C4186      F4190   1.382       .  S
C4186      F4191   1.384       .  S
C4186      F4192   1.385       .  S
C4193      C4194   1.405       .  A
C4193      C4198   1.407       .  A
C4193      H4200   1.079       .  S
C4195      C4196   1.407       .  A
C4195      C4202   1.521       .  S
C4196      H4201   1.091       .  S
C4197      C4198   1.420       .  A
C4198      C4199   1.521       .  S
C4199      F4205   1.383       .  S
C4202      F4206   1.385       .  S
C4209      C4210   1.404       .  A
C4209      C4214   1.407       .  A
C4209      H4216   1.083       .  S
C4211      C4212   1.407       .  A
C4211      C4218   1.519       .  S
C4212      H4217   1.084       .  S
C4213      C4214   1.418       .  A
C4214      C4215   1.520       .  S
C4215      F4219   1.385       .  S
C4215      F4220   1.382       .  S
C4215      F4221   1.384       .  S
C4218      F4222   1.384       .  S
C4218      F4223   1.382       .  S
C4218      F4224   1.384       .  S
C4225      C4226   1.405       .  A
C4225      C4230   1.408       .  A
C4225      H4232   1.083       .  S
C4226      C4227   1.421       .  A
C4227      C4228   1.410       .  A
C4227      C4234   1.520       .  S
C4228      C4229   1.406       .  A
C4228      H4233   1.083       .  S
C4229      C4230   1.420       .  A
C4230      C4231   1.520       .  S
C4231      F4235   1.385       .  S
C4231      F4236   1.382       .  S
C4231      F4237   1.384       .  S
C4234      F4238   1.384       .  S
C4234      F4239   1.383       .  S
C4234      F4240   1.385       .  S
C4241      C4242   1.408       .  A
C4241      C4246   1.405       .  A
C4241      H4248   1.082       .  S
C4242      C4243   1.426       .  A
C4243      C4244   1.412       .  A
C4243      C4250   1.519       .  S
C4244      C4245   1.403       .  A
C4244      H4249   1.083       .  S
C4245      C4246   1.419       .  A
C4246      C4247   1.518       .  S
C4247      F4251   1.378       .  S
C4247      F4252   1.382       .  S
C4247      F4253   1.385       .  S
C4250      F4254   1.381       .  S
C4250      F4255   1.383       .  S
C4250      F4256   1.385       .  S
C4257      C4258   1.407       .  A
C4257      C4262   1.410       .  A
C4257      H4264   1.082       .  S
C4258      C4259   1.426       .  A
C4259      C4260   1.410       .  A
C4259      C4266   1.523       .  S
C4260      C4261   1.408       .  A
C4260      H4265   1.081       .  S
C4261      C4262   1.425       .  A
C4262      C4263   1.522       .  S
C4263      F4267   1.385       .  S
C4263      F4268   1.383       .  S
C4263      F4269   1.382       .  S
C4266      F4270   1.383       .  S
C4266      F4271   1.384       .  S
C4266      F4272   1.385       .  S
C4273      C4274   1.403       .  A
C4273      C4278   1.408       .  A
C4273      H4280   1.083       .  S
C4274      C4275   1.418       .  A
C4275      C4276   1.408       .  A
C4275      C4282   1.518       .  S
C4276      C4277   1.402       .  A
C4276      H4281   1.083       .  S
C4277      C4278   1.420       .  A
C4278      C4279   1.521       .  S
C4279      F4283   1.385       .  S
C4279      F4284   1.384       .  S
C4279      F4285   1.382       .  S
C4282      F4286   1.382       .  S
C4282      F4287   1.383       .  S
C4282      F4288   1.384       .  S
C4289      C4294   1.406       .  A
C4289      H4296   1.083       .  S
C4290      C4291   1.418       .  A
C4291      C4292   1.410       .  A
C4291      C4298   1.519       .  S
C4292      H4297   1.083       .  S
C4293      C4294   1.418       .  A
C4294      C4295   1.520       .  S
C4295      F4299   1.384       .  S
C4295      F4300   1.384       .  S
C4298      F4303   1.384       .  S
C4298      F4304   1.384       .  S
C4305      C4310   1.406       .  A
C4305      H4312   1.083       .  S
C4306      C4307   1.423       .  A
C4307      C4308   1.408       .  A
C4307      C4314   1.521       .  S
C4308      H4313   1.083       .  S
C4309      C4310   1.419       .  A
C4310      C4311   1.521       .  S
C4311      F4315   1.385       .  S
C4311      F4316   1.384       .  S
C4314      F4319   1.383       .  S
C4314      F4320   1.385       .  S
C4321      C4326   1.410       .  A
C4321      H4328   1.083       .  S
C4322      C4323   1.420   1_455  A
C4323      C4324   1.404       .  A
C4323      C4330   1.521       .  S
C4324      C4325   1.403   1_655  A
C4324      H4329   1.083       .  S
C4326      C4327   1.521       .  S
C4327      F4331   1.385       .  S
C4327      F4332   1.382       .  S
C4327      F4333   1.383       .  S
C4330      F4334   1.384       .  S
C4330      F4335   1.383       .  S
C4330      F4336   1.385       .  S
C4337      C4342   1.408       .  A
C4337      H4344   1.082       .  S
C4338      C4339   1.422       .  A
C4339      C4340   1.409       .  A
C4339      C4346   1.521       .  S
C4340      C4341   1.406       .  A
C4340      H4345   1.083       .  S
C4342      C4343   1.519       .  S
C4343      F4347   1.385       .  S
C4343      F4348   1.383       .  S
C4343      F4349   1.383       .  S
C4346      F4350   1.383       .  S
C4346      F4351   1.383       .  S
C4346      F4352   1.385       .  S
C4353      C4354   1.406   1_655  A
C4353      C4358   1.408       .  A
C4353      H4360   1.082       .  S
C4355      C4356   1.411       .  A
C4355      C4362   1.520       .  S
C4356      H4361   1.083       .  S
C4357      C4358   1.422   1_455  A
C4358      C4359   1.521       .  S
C4359      F4363   1.385       .  S
C4359      F4364   1.383       .  S
C4359      F4365   1.383       .  S
C4362      F4366   1.384       .  S
C4362      F4367   1.383       .  S
C4362      F4368   1.385       .  S
C4369      C4370   1.404   1_655  A
C4369      C4374   1.405       .  A
C4369      H4376   1.082       .  S
C4371      C4372   1.410       .  A
C4371      C4378   1.522       .  S
C4372      H4377   1.082       .  S
C4373      C4374   1.423   1_455  A
C4374      C4375   1.522       .  S
C4375      F4379   1.385       .  S
C4375      F4380   1.383       .  S
C4375      F4381   1.384       .  S
C4378      F4382   1.384       .  S
C4378      F4383   1.383       .  S
C4378      F4384   1.385       .  S
C4385      C4390   1.407       .  A
C4385      H4392   1.083       .  S
C4387      C4388   1.407       .  A
C4387      C4394   1.521       .  S
C4388      H4393   1.083       .  S
C4390      C4391   1.522       .  S
C4391      F4395   1.385       .  S
C4391      F4396   1.383       .  S
C4394      F4399   1.383       .  S
C4394      F4400   1.385       .  S
C4401      C4406   1.408       .  A
C4401      H4408   1.083       .  S
C4402      C4403   1.411       .  A
C4403      C4404   1.406       .  A
C4403      C4410   1.520       .  S
C4404      C4405   1.412       .  A
C4404      H4409   1.082       .  S
C4406      C4407   1.522       .  S
C4407      F4411   1.385       .  S
C4407      F4413   1.383       .  S
C4410      F4414   1.384       .  S
C4410      F4416   1.385       .  S
