geometry optimzed in LAMMPS
_audit_creation_date              2020-11-30 
_audit_creation_method            'lammps2cif' 
_symmetry_space_group_name_H-M    'P1' 
_symmetry_Int_Tables_number       1 
_symmetry_cell_setting            triclinic 
loop_ 
_symmetry_equiv_pos_as_xyz 
  x,y,z 
_cell_length_a                    30.35173883 
_cell_length_b                    30.35741600259341 
_cell_length_c                    45.44217910864242 
_cell_angle_alpha                 89.99823998446686 
_cell_angle_beta                  89.99257026379988 
_cell_angle_gamma                 119.99824613630057 
loop_ 
_atom_site_label 
_atom_site_type_symbol 
_atom_site_fract_x 
_atom_site_fract_y 
_atom_site_fract_z 
_atom_site_charge 
O1          O  0.91607858  0.95346441  0.33449879    -0.71700
O2          O  0.04115079  0.07890970  0.33457919    -0.71900
O3          O  0.97918915  0.01676852  0.29287336    -0.71800
O4          O  0.97830875  0.01627553  0.37623051    -0.71800
O5          O  0.02517243  0.98089131  0.37627311    -0.71700
O6          O  0.01424498  0.96940144  0.29303786    -0.71700
O7          O  0.08201803  0.03747036  0.33080435    -0.71700
O8          O  0.95778321  0.91291984  0.33845075    -0.71900
V9          V  0.97937698  0.01553949  0.33454847     1.35200
V10         V  0.01907094  0.97596031  0.33465236     1.35200
C11         C  0.91560131  0.91170668  0.33720246     0.77600
C12         C  0.08295034  0.07954421  0.33184844     0.77600
C13         C  0.99627103  0.99262337  0.27882509     0.77500
C14         C  0.00242919  0.99938819  0.39055258     0.77400
O15         O  0.08343651  0.54512445  0.33371071    -0.71700
O16         O  0.95737545  0.42101107  0.33051708    -0.71900
O17         O  0.02293568  0.48548717  0.29057399    -0.71800
O18         O  0.01802319  0.48048853  0.37372971    -0.71800
O19         O  0.97602361  0.52098905  0.37389420    -0.71700
O20         O  0.98418086  0.52920356  0.29053553    -0.71700
O21         O  0.91716123  0.46330104  0.32934869    -0.71700
O22         O  0.04283048  0.58704161  0.33505569    -0.71900
V23         V  0.01964520  0.48383833  0.33213964     1.35200
V24         V  0.98082461  0.52433564  0.33220604     1.35200
C25         C  0.08461510  0.58731521  0.33519156     0.77600
C26         C  0.91570800  0.42095752  0.32911821     0.77600
C27         C  0.00459824  0.50829365  0.27629487     0.77500
C28         C  0.99609505  0.49968923  0.38809128     0.77400
O29         O  0.54150936  0.08719254  0.33427991    -0.71700
O30         O  0.41773357  0.96086787  0.33503788    -0.71900
O31         O  0.47957403  0.02537652  0.37646962    -0.71800
O32         O  0.47964566  0.02251348  0.29289878    -0.71800
O33         O  0.51528088  0.97585952  0.29415116    -0.71700
O34         O  0.52866292  0.99239592  0.37705590    -0.71700
O35         O  0.46026456  0.92138388  0.34045400    -0.71700
O36         O  0.58343514  0.04675233  0.33058277    -0.71900
V37         V  0.48037566  0.02326671  0.33470284     1.35200
V38         V  0.52114233  0.98482894  0.33557972     1.35200
C39         C  0.58357321  0.08846172  0.33144239     0.77600
C40         C  0.41781310  0.91953708  0.33835720     0.77600
C41         C  0.50530558  0.01056165  0.39100118     0.77500
C42         C  0.49620021  0.99737992  0.27926835     0.77400
O43         O  0.45841438  0.41068248  0.33357276    -0.71700
O44         O  0.58395356  0.53573788  0.33016820    -0.71900
O45         O  0.52455998  0.47518866  0.37349560    -0.71800
O46         O  0.51771771  0.47091685  0.29013101    -0.71800
O47         O  0.48219258  0.51771799  0.29097904    -0.71700
O48         O  0.47871615  0.51165376  0.37439551    -0.71700
O49         O  0.54276666  0.57679243  0.33457278    -0.71700
O50         O  0.41776956  0.45249616  0.33087881    -0.71900
V51         V  0.52042845  0.47390225  0.33184139     1.35200
V52         V  0.48110759  0.51384747  0.33267312     1.35200
C53         C  0.41662720  0.41034410  0.33192891     0.77600
C54         C  0.58471289  0.57761179  0.33290317     0.77600
C55         C  0.50237594  0.49370542  0.38825355     0.77500
C56         C  0.49944272  0.49426337  0.27630067     0.77400
O57         O  0.94939887  0.03910252  0.99901485    -0.71700
O58         O  0.07494772  0.04062558  0.00620027    -0.71900
O59         O  0.01872382  0.04306045  0.96117446    -0.71800
O60         O  0.00549043  0.03695587  0.04427561    -0.71800
O61         O  0.97306603  0.95495911  0.04246535    -0.71700
O62         O  0.97145298  0.96090585  0.95916251    -0.71700
O63         O  0.03502016  0.95890309  0.99935868    -0.71700
O64         O  0.90903427  0.95664482  0.00215842    -0.71900
V65         V  0.01143560  0.03848365  0.00267515     1.35200
V66         V  0.97283308  0.95933354  0.00083682     1.35200
C67         C  0.90773732  0.99746922  0.99981193     0.77600
C68         C  0.07646862  0.99997966  0.00304466     0.77600
C69         C  0.99588924  0.00303221  0.94589867     0.77500
C70         C  0.98882547  0.99501913  0.05757206     0.77400
O71         O  0.04510087  0.46101074  0.99791097    -0.71700
O72         O  0.92112703  0.46286462  0.00167727    -0.71900
O73         O  0.97925485  0.45959618  0.95815969    -0.71800
O74         O  0.98709159  0.46425097  0.04139910    -0.71800
O75         O  0.02724599  0.54669684  0.03985076    -0.71700
O76         O  0.02281006  0.54207098  0.95656278    -0.71700
O77         O  0.96308815  0.54527945  0.99873479    -0.71700
O78         O  0.08712821  0.54352118  0.99758944    -0.71900
V79         V  0.98392178  0.46351238  0.99975593     1.35200
V80         V  0.02427619  0.54279728  0.99823030     1.35200
C81         C  0.08737084  0.50198333  0.99732686     0.77600
C82         C  0.92091970  0.50437856  0.00044408     0.77600
C83         C  0.00007764  0.50003026  0.94313059     0.77500
C84         C  0.00823860  0.50629523  0.05489142     0.77400
O85         O  0.53218273  0.95594958  0.99875913    -0.71700
O86         O  0.40926177  0.95985215  0.00263080    -0.71900
O87         O  0.46950872  0.96125474  0.95906795    -0.71800
O88         O  0.47144475  0.95444484  0.04238871    -0.71800
O89         O  0.51442350  0.03693436  0.04452589    -0.71700
O90         O  0.51395127  0.04364343  0.96107905    -0.71700
O91         O  0.45250933  0.04232888  0.00403679    -0.71700
O92         O  0.57546479  0.03827575  0.00146139    -0.71900
V93         V  0.47149400  0.95948372  0.00075271     1.35200
V94         V  0.51320997  0.03870737  0.00276496     1.35200
C95         C  0.57490385  0.99645295  0.99940385     0.77600
C96         C  0.40983561  0.00174931  0.00376417     0.76400
C97         C  0.49158119  0.00353570  0.94581185     0.77500
C98         C  0.49299890  0.99454113  0.05769105     0.77400
O99         O  0.46377961  0.54616286  0.99767127    -0.71700
O100        O  0.58744088  0.54372910  0.00177734    -0.71900
O101        O  0.53013482  0.54760007  0.95808897    -0.71800
O102        O  0.52171904  0.54225582  0.04148714    -0.71800
O103        O  0.48334456  0.45974535  0.03975834    -0.71700
O104        O  0.48258852  0.46526081  0.95645275    -0.71700
O105        O  0.54533086  0.46160706  0.99694163    -0.71700
O106        O  0.42142352  0.46357830  0.99929116    -0.71900
V107        V  0.52491596  0.54340532  0.99975034     1.35200
V108        V  0.48406898  0.46411525  0.99812781     1.35200
C109        C  0.42146758  0.50518288  0.99815897     0.77600
C110        C  0.58758084  0.50229897  0.99951614     0.77600
C111        C  0.50660506  0.50728705  0.94313860     0.77500
C112        C  0.50209296  0.50007779  0.05484321     0.77400
O113        O  0.03962502  0.95334239  0.66993101    -0.71700
O114        O  0.04411218  0.08081800  0.66730847    -0.71900
O115        O  0.04235118  0.01927930  0.71025821    -0.71800
O116        O  0.04177503  0.01529502  0.62695945    -0.71800
O117        O  0.95938854  0.97804602  0.62691786    -0.71700
O118        O  0.95978797  0.97856653  0.71041456    -0.71700
O119        O  0.96159743  0.04144703  0.66879506    -0.71700
O120        O  0.95712741  0.91453519  0.66861418    -0.71900
V121        V  0.04039382  0.01638154  0.66860805     1.35200
V122        V  0.96108506  0.97884535  0.66868797     1.35200
C123        C  0.99747845  0.91212644  0.66929875     0.77600
C124        C  0.00345424  0.08278788  0.66797206     0.77600
C125        C  0.00119477  0.99982361  0.72458525     0.77500
C126        C  0.00064540  0.99674878  0.61263954     0.77400
O127        O  0.95408205  0.53619224  0.66660675    -0.71700
O128        O  0.95606839  0.41216690  0.66530744    -0.71900
O129        O  0.95551333  0.47333412  0.70756790    -0.71800
O130        O  0.95446969  0.47467210  0.62433970    -0.71800
O131        O  0.03690466  0.51304365  0.62389944    -0.71700
O132        O  0.03785823  0.51930791  0.70737876    -0.71700
O133        O  0.03854570  0.45438015  0.66768987    -0.71700
O134        O  0.03648428  0.57822773  0.66358805    -0.71900
V135        V  0.95662280  0.47493373  0.66595360     1.35200
V136        V  0.03591701  0.51548631  0.66564157     1.35200
C137        C  0.99496738  0.57843189  0.66478973     0.77600
C138        C  0.99763027  0.41208475  0.66669126     0.77600
C139        C  0.99673386  0.49626629  0.72175436     0.77500
C140        C  0.99538904  0.49331223  0.60982147     0.77400
O141        O  0.54186096  0.01858584  0.71086447    -0.71700
O142        O  0.54705495  0.02445376  0.62742095    -0.71900
O143        O  0.54332607  0.08320280  0.67005711    -0.71800
O144        O  0.54551536  0.95927098  0.66797263    -0.71800
O145        O  0.46302434  0.91713734  0.66649224    -0.71700
O146        O  0.46075235  0.04097474  0.66840239    -0.71700
O147        O  0.46450447  0.98139743  0.62576465    -0.71700
O148        O  0.45933163  0.97703025  0.70922189    -0.71900
V149        V  0.54283427  0.02048022  0.66909487     1.35200
V150        V  0.46350808  0.97988246  0.66751715     1.35200
C151        C  0.49974359  0.99778176  0.72430971     0.77600
C152        C  0.50663543  0.00386059  0.61236739     0.77600
C153        C  0.50168042  0.08321270  0.66958153     0.77500
C154        C  0.50461176  0.91698828  0.66639630     0.77400
O155        O  0.54753743  0.58414526  0.66241762    -0.71700
O156        O  0.54601546  0.45885107  0.66997738    -0.71900
O157        O  0.54749978  0.51650262  0.62469508    -0.71800
O158        O  0.54616308  0.52702837  0.70775030    -0.71800
O159        O  0.46373393  0.48015807  0.70755610    -0.71700
O160        O  0.46527278  0.48144764  0.62403781    -0.71700
O161        O  0.46379507  0.41807213  0.66564219    -0.71700
O162        O  0.46515586  0.54384100  0.66598041    -0.71900
V163        V  0.54526602  0.52079915  0.66621821     1.35200
V164        V  0.46598777  0.48165291  0.66580220     1.35200
C165        C  0.50659615  0.58544543  0.66352674     0.77600
C166        C  0.50467664  0.41696703  0.66846712     0.77600
C167        C  0.50670782  0.49852079  0.61007351     0.77500
C168        C  0.50476170  0.50453213  0.72182154     0.77400
C169        C  0.54571896  0.72292291  0.64714844    -0.27500
C170        C  0.50765011  0.72769733  0.66190366     0.02100
C171        C  0.46900770  0.68514219  0.67683106     0.30200
C172        C  0.46861581  0.63888767  0.67666827    -0.19300
C173        C  0.50711237  0.63434482  0.66235978    -0.28700
C174        C  0.54581928  0.67683739  0.64741480     0.44200
C175        C  0.50820888  0.77692143  0.66170630     0.05400
O176        O  0.43185418  0.68856610  0.69211113    -0.57200
H177        H  0.43873775  0.60677377  0.68842920     0.18300
O178        O  0.58360859  0.67365861  0.63270912    -0.63900
H179        H  0.57522789  0.75489104  0.63512739     0.16800
C180        C  0.55172264  0.82254768  0.67028619     0.29000
C181        C  0.55011100  0.86785482  0.67156514    -0.24800
C182        C  0.50552146  0.86868911  0.66428143    -0.24100
C183        C  0.46251617  0.82321830  0.65479520     0.40500
C184        C  0.46415629  0.77802389  0.65359020    -0.26600
O185        O  0.59510473  0.82272428  0.67896298    -0.58500
H186        H  0.58368300  0.90226129  0.67881806     0.16100
O187        O  0.41854512  0.82229227  0.64666130    -0.59900
H188        H  0.43069766  0.74352923  0.64630650     0.14600
H189        H  0.56931483  0.66007379  0.61295836     0.46400
H190        H  0.61953357  0.83880306  0.66249034     0.41800
H191        H  0.42259363  0.83057554  0.62536389     0.45300
H192        H  0.44703389  0.70261786  0.71161901     0.36700
C193        C  0.54393920  0.31765758  0.68130058    -0.27500
C194        C  0.50184970  0.27373540  0.67001853     0.02100
C195        C  0.46027522  0.27698422  0.65885010     0.30200
C196        C  0.46137457  0.32361708  0.65893404    -0.19300
C197        C  0.50395683  0.36786295  0.66965007    -0.28700
C198        C  0.54531698  0.36440471  0.68112908     0.44200
C199        C  0.50187387  0.22488977  0.66989460     0.05400
O200        O  0.41874264  0.23500063  0.64731875    -0.57200
H201        H  0.42917020  0.32530624  0.64997948     0.18300
O202        O  0.58723021  0.40632305  0.69238945    -0.63900
H203        H  0.57581889  0.31565453  0.69049662     0.16800
C204        C  0.54249288  0.22148298  0.65731596     0.29000
C205        C  0.54199195  0.17515258  0.65756605    -0.24800
C206        C  0.50117211  0.13156375  0.67005243    -0.24100
C207        C  0.46054087  0.13493480  0.68268979     0.40500
C208        C  0.46117225  0.18136004  0.68258650    -0.26600
O209        O  0.58164665  0.26266581  0.64350752    -0.58500
H210        H  0.57325732  0.17312481  0.64743890     0.16100
O211        O  0.42039173  0.09335250  0.69555114    -0.59900
H212        H  0.42999321  0.18350908  0.69273119     0.14600
H213        H  0.57927610  0.40732862  0.71346645     0.46400
H214        H  0.61134571  0.27442919  0.65683240     0.41800
H215        H  0.43064233  0.09399810  0.71636086     0.45300
H216        H  0.42750847  0.23371777  0.62643401     0.36700
C217        C  0.95273323  0.77229184  0.65668871    -0.27500
C218        C  0.99349875  0.76833238  0.66821137     0.02100
C219        C  0.03515324  0.81175727  0.68062097     0.30200
C220        C  0.03612917  0.85834634  0.68072454    -0.19300
C221        C  0.99538300  0.86235827  0.66914827    -0.28700
C222        C  0.95327470  0.81864119  0.65721634     0.44200
C223        C  0.99279808  0.71914229  0.66666306     0.05400
O224        O  0.07500137  0.80900339  0.69288399    -0.57200
H225        H  0.06860795  0.89130497  0.69024775     0.18300
O226        O  0.91280131  0.82087437  0.64548026    -0.63900
H227        H  0.92070489  0.73951993  0.64671372     0.16800
C228        C  0.95133399  0.67395737  0.67757489     0.29000
C229        C  0.95226939  0.62831878  0.67645861    -0.24800
C230        C  0.99416163  0.62678107  0.66449756    -0.24100
C231        C  0.03501456  0.67179116  0.65284941     0.40500
C232        C  0.03410370  0.71737684  0.65404131    -0.26600
O233        O  0.91094157  0.67456140  0.69072286    -0.58500
H234        H  0.92053374  0.59424688  0.68560355     0.16100
O235        O  0.07598169  0.67175683  0.64013142    -0.59900
H236        H  0.06576815  0.75154234  0.64492443     0.14600
H237        H  0.92177582  0.83017329  0.62450254     0.46400
H238        H  0.88253595  0.65809868  0.67641715     0.41800
H239        H  0.06621639  0.66241472  0.61924633     0.45300
H240        H  0.06388960  0.79636753  0.71319725     0.36700
C241        C  0.96027542  0.27385193  0.65562386    -0.27500
C242        C  0.00143726  0.27235468  0.66864583     0.02100
C243        C  0.04138207  0.31713251  0.68099693     0.30200
C244        C  0.03995171  0.36247702  0.67994880    -0.19300
C245        C  0.99848645  0.36383827  0.66718985    -0.28700
C246        C  0.95843316  0.31894122  0.65495316     0.44200
C247        C  0.00237260  0.22398259  0.66898601     0.05400
O248        O  0.08169598  0.31686044  0.69445393    -0.57200
H249        H  0.07097996  0.39648407  0.68962647     0.18300
O250        O  0.91760883  0.31875357  0.64188034    -0.63900
H251        H  0.92965397  0.24001091  0.64556772     0.16800
C252        C  0.96080906  0.17900547  0.67996033     0.29000
C253        C  0.96191901  0.13351639  0.67948744    -0.24800
C254        C  0.00413828  0.13183809  0.66819274    -0.24100
C255        C  0.04582353  0.17690401  0.65725985     0.40500
C256        C  0.04468757  0.22245769  0.65772115    -0.26600
O257        O  0.91985036  0.17962973  0.69230052    -0.58500
H258        H  0.92972182  0.09949249  0.68833960     0.16100
O259        O  0.08752056  0.17682233  0.64569553    -0.59900
H260        H  0.07666929  0.25659105  0.64881276     0.14600
H261        H  0.92791261  0.32852953  0.62108816     0.46400
H262        H  0.89171276  0.16212779  0.67790996     0.41800
H263        H  0.07991126  0.16949298  0.62442258     0.45300
H264        H  0.07024560  0.30543694  0.71489882     0.36700
C265        C  0.53607593  0.55260998  0.80005700    -0.27500
C266        C  0.50535762  0.50805267  0.81619464     0.02100
C267        C  0.47359533  0.46249591  0.80084056     0.30200
C268        C  0.47265969  0.46220477  0.77007243    -0.19300
C269        C  0.50445990  0.50642069  0.75413400    -0.28700
C270        C  0.53628360  0.55186522  0.76929911     0.44200
C271        C  0.50637114  0.50949413  0.84889900     0.05400
O272        O  0.44405594  0.41778098  0.81564136    -0.57200
H273        H  0.44821635  0.42691029  0.75861744     0.18300
O274        O  0.56724107  0.59593024  0.75426170    -0.63900
H275        H  0.55974148  0.58829425  0.81129515     0.16800
C276        C  0.55275583  0.53311543  0.86460262     0.29000
C277        C  0.55243421  0.53322090  0.89543697    -0.24800
C278        C  0.50639534  0.50905267  0.91090715    -0.24100
C279        C  0.46017758  0.48584737  0.89539789     0.40500
C280        C  0.46035626  0.48673647  0.86466642    -0.26600
O281        O  0.59843534  0.55355052  0.85005838    -0.58500
H282        H  0.58821730  0.55079774  0.90728229     0.16100
O283        O  0.41460402  0.46239069  0.91011299    -0.59900
H284        H  0.42432054  0.46953829  0.85312128     0.14600
H285        H  0.54540002  0.61066392  0.74946580     0.46400
H286        H  0.61459987  0.59091000  0.85277321     0.41800
H287        H  0.40743842  0.49006784  0.91512547     0.45300
H288        H  0.46643281  0.40316312  0.81894609     0.36700
C289        C  0.52768511  0.04745356  0.86665234    -0.27500
C290        C  0.49040923  0.00526179  0.85115365     0.02100
C291        C  0.45290036  0.96328748  0.86685523     0.30200
C292        C  0.45365933  0.96347913  0.89764065    -0.19300
C293        C  0.49104371  0.00553957  0.91327848    -0.28700
C294        C  0.52794058  0.04809579  0.89747076     0.44200
C295        C  0.49271295  0.00421434  0.81865779     0.05400
O296        O  0.41714351  0.92077050  0.85226522    -0.57200
H297        H  0.42495962  0.93036720  0.90929504     0.18300
O298        O  0.56591041  0.08940751  0.91182162    -0.63900
H299        H  0.55694793  0.07986632  0.85477254     0.16800
C300        C  0.45189961  0.99835408  0.80113332     0.29000
C301        C  0.45427779  0.99522267  0.77050705    -0.24800
C302        C  0.49761825  0.99909247  0.75681110    -0.24100
C303        C  0.53891889  0.00609688  0.77440783     0.40500
C304        C  0.53609815  0.00833673  0.80506803    -0.26600
O305        O  0.40979384  0.99623719  0.81370282    -0.58500
H306        H  0.42251417  0.99084928  0.75739839     0.16100
O307        O  0.58144002  0.00891667  0.76198107    -0.59900
H308        H  0.56769779  0.01269117  0.81834045     0.14600
H309        H  0.55414298  0.11453371  0.91273358     0.46400
H310        H  0.41854181  0.03216795  0.81601950     0.41800
H311        H  0.60682556  0.04575295  0.76112991     0.45300
H312        H  0.38464787  0.92079997  0.85463765     0.36700
C313        C  0.68599483  0.46090153  0.99016107    -0.27500
C314        C  0.72976081  0.50310743  0.00150118     0.02100
C315        C  0.72641914  0.54490444  0.01217522     0.30200
C316        C  0.68003739  0.54420639  0.01118775    -0.19300
C317        C  0.63608356  0.50182475  0.00004708    -0.28700
C318        C  0.63943081  0.45989669  0.98947817     0.44200
C319        C  0.77878986  0.50346886  0.00166395     0.05400
O320        O  0.76816683  0.58648206  0.02386356    -0.57200
H321        H  0.67838017  0.57675825  0.01957341     0.18300
O322        O  0.59767331  0.41792077  0.97813533    -0.63900
H323        H  0.68804721  0.42880943  0.98137042     0.16800
C324        C  0.78259573  0.46290010  0.01395279     0.29000
C325        C  0.82913404  0.46377971  0.01344986    -0.24800
C326        C  0.87249101  0.50486196  0.00090080    -0.24100
C327        C  0.86866190  0.54551217  0.98865040     0.40500
C328        C  0.82209524  0.54450063  0.98904764    -0.26600
O329        O  0.74155853  0.42330849  0.02759688    -0.58500
H330        H  0.83139489  0.43243017  0.02325186     0.16100
O331        O  0.90990996  0.58609143  0.97583484    -0.59900
H332        H  0.81964086  0.57563029  0.97908272     0.14600
H333        H  0.59785978  0.42508012  0.95682671     0.46400
H334        H  0.73020044  0.39379550  0.01415844     0.41800
H335        H  0.90939279  0.57607085  0.95499534     0.45300
H336        H  0.76916636  0.57769451  0.04478735     0.36700
C337        C  0.18456297  0.45836129  0.99005519    -0.27500
C338        C  0.23005663  0.50338595  0.99647859     0.02100
C339        C  0.22822713  0.54790808  0.00275974     0.30200
C340        C  0.18169651  0.54694286  0.00250000    -0.19300
C341        C  0.13603871  0.50172158  0.99661286    -0.28700
C342        C  0.13785672  0.45712530  0.99030551     0.44200
C343        C  0.27905732  0.50347703  0.99677001     0.05400
O344        O  0.27159837  0.59246106  0.00969868    -0.57200
H345        H  0.18136148  0.58166184  0.00752051     0.18300
O346        O  0.09435943  0.41204400  0.98439894    -0.63900
H347        H  0.18519422  0.42394889  0.98461295     0.16800
C348        C  0.28422022  0.46624690  0.01247326     0.29000
C349        C  0.33081847  0.46727116  0.01259014    -0.24800
C350        C  0.37303424  0.50542835  0.99754218    -0.24100
C351        C  0.36801111  0.54265403  0.98182511     0.40500
C352        C  0.32122371  0.54125798  0.98134769    -0.26600
O353        O  0.24469193  0.43025950  0.02896361    -0.58500
H354        H  0.33420232  0.43862592  0.02501031     0.16100
O355        O  0.40829823  0.58010286  0.96651124    -0.59900
H356        H  0.31779425  0.56963275  0.96868504     0.14600
H357        H  0.08994377  0.41169774  0.96274082     0.46400
H358        H  0.23292005  0.39759431  0.01843622     0.41800
H359        H  0.40642583  0.56553830  0.94668679     0.45300
H360        H  0.27571737  0.59091961  0.03126186     0.36700
C361        C  0.98760053  0.45450416  0.86423365    -0.27500
C362        C  0.99779144  0.49850282  0.84872495     0.02100
C363        C  0.00727269  0.54243001  0.86425033     0.30200
C364        C  0.00747865  0.54224203  0.89501543    -0.19300
C365        C  0.99821685  0.49851455  0.91067523    -0.28700
C366        C  0.98797354  0.45427383  0.89498058     0.44200
C367        C  0.99803669  0.49790700  0.81629477     0.05400
O368        O  0.01429368  0.58491375  0.84949237    -0.57200
H369        H  0.01456391  0.57635156  0.90662267     0.18300
O370        O  0.97890932  0.41080353  0.90936591    -0.63900
H371        H  0.98009304  0.42043811  0.85240867     0.16800
C372        C  0.04228690  0.53051013  0.80035935     0.29000
C373        C  0.04142124  0.52961376  0.76960556    -0.24800
C374        C  0.99680926  0.49604943  0.75430293    -0.24100
C375        C  0.95288797  0.46241968  0.77046372     0.40500
C376        C  0.95379272  0.46369037  0.80119045    -0.26600
O377        O  0.08664050  0.56311129  0.81465224    -0.58500
H378        H  0.07576181  0.55538456  0.75773947     0.16100
O379        O  0.90881491  0.42807834  0.75656302    -0.59900
H380        H  0.91970958  0.43801253  0.81331219     0.14600
H381        H  0.01298153  0.41450714  0.91245899     0.46400
H382        H  0.10283761  0.54255328  0.81924838     0.41800
H383        H  0.91154163  0.39705950  0.75406814     0.45300
H384        H  0.05099580  0.61020707  0.85160380     0.36700
C385        C  0.80627669  0.02984354  0.97917870    -0.27500
C386        C  0.76491402  0.99463563  0.99617930     0.02100
C387        C  0.77054042  0.95940701  0.01369335     0.30200
C388        C  0.81696032  0.96008936  0.01422237    -0.19300
C389        C  0.85871624  0.99639340  0.99800340    -0.28700
C390        C  0.85295513  0.03106432  0.98009950     0.44200
C391        C  0.71646383  0.99554525  0.99601655     0.05400
O392        O  0.73127301  0.92487916  0.03090487    -0.57200
H393        H  0.82075549  0.93305700  0.02802035     0.18300
O394        O  0.89246631  0.06584779  0.96312009    -0.63900
H395        H  0.80233846  0.05642361  0.96506282     0.16800
C396        C  0.71582316  0.04077560  0.00186271     0.29000
C397        C  0.66955573  0.04041296  0.00278830    -0.24800
C398        C  0.62319041  0.99537115  0.99783980    -0.24100
C399        C  0.62401046  0.95023853  0.99149282     0.40500
C400        C  0.67032236  0.95064834  0.99063355    -0.26600
O401        O  0.76001856  0.08497465  0.00819998    -0.58500
H402        H  0.67008637  0.07555803  0.00781852     0.16100
O403        O  0.57989002  0.90534352  0.98634031    -0.59900
H404        H  0.67018611  0.91566053  0.98570192     0.14600
H405        H  0.89047305  0.04765591  0.94458731     0.46400
H406        H  0.76751299  0.10662404  0.99044110     0.41800
H407        H  0.57468499  0.90428783  0.96473760     0.45300
H408        H  0.73359923  0.94329296  0.04938902     0.36700
C409        C  0.17760350  0.96343457  0.99020026    -0.27500
C410        C  0.21899992  0.00158700  0.00582197     0.02100
C411        C  0.21324267  0.03927875  0.02053449     0.30200
C412        C  0.16689765  0.03875883  0.01916002    -0.19300
C413        C  0.12535689  0.00033849  0.00371177    -0.28700
C414        C  0.13109068  0.96246825  0.98914423     0.44200
C415        C  0.26809131  0.00200159  0.00620550     0.05400
O416        O  0.25246165  0.07643072  0.03662014    -0.57200
H417        H  0.16316241  0.06796675  0.03068766     0.18300
O418        O  0.09175901  0.92469214  0.97342785    -0.63900
H419        H  0.18155165  0.93456953  0.97841424     0.16800
C420        C  0.27025740  0.95827255  0.01416286     0.29000
C421        C  0.31656211  0.95879497  0.01319818    -0.24800
C422        C  0.36160204  0.00280854  0.00475725    -0.24100
C423        C  0.35948963  0.04675242  0.99704042     0.40500
C424        C  0.31302996  0.04605316  0.99780086    -0.26600
O425        O  0.22734475  0.91484238  0.02308030    -0.58500
H426        H  0.31723848  0.92466740  0.01938191     0.16100
O427        O  0.40231875  0.09035214  0.98823958    -0.59900
H428        H  0.31194464  0.07980961  0.99123581     0.14600
H429        H  0.09473334  0.93892636  0.95338777     0.46400
H430        H  0.22442242  0.91948448  0.04444757     0.41800
H431        H  0.40395934  0.08701124  0.96659305     0.45300
H432        H  0.25047093  0.06075671  0.05613085     0.36700
C433        C  0.04297541  0.01509890  0.80449742    -0.27500
C434        C  0.99858497  0.00659266  0.81892242     0.02100
C435        C  0.95563108  0.99703774  0.80231145     0.30200
C436        C  0.95712975  0.99499526  0.77161352    -0.19300
C437        C  0.00120374  0.00252714  0.75704703    -0.28700
C438        C  0.04463596  0.01328120  0.77378716     0.44200
C439        C  0.99714534  0.00619103  0.85137128     0.05400
O440        O  0.91273959  0.99143790  0.81591621    -0.57200
H441        H  0.92372952  0.98786230  0.75919023     0.18300
O442        O  0.08820682  0.02010598  0.76051111    -0.63900
H443        H  0.07618107  0.02226149  0.81714980     0.16800
C444        C  0.96265115  0.96201284  0.86671690     0.29000
C445        C  0.96262988  0.96172306  0.89742403    -0.24800
C446        C  0.99705001  0.00505396  0.91338509    -0.24100
C447        C  0.03189291  0.04929363  0.89791220     0.40500
C448        C  0.03173251  0.04952520  0.86712268    -0.26600
O449        O  0.92927757  0.91862396  0.85188349    -0.58500
H450        H  0.93554260  0.92729542  0.90874914     0.16100
O451        O  0.06638270  0.09241841  0.91253540    -0.59900
H452        H  0.05870500  0.08362362  0.85547207     0.14600
H453        H  0.11093846  0.05749209  0.75935694     0.46400
H454        H  0.94847882  0.90079639  0.84781253     0.41800
H455        H  0.09695310  0.08890888  0.91505038     0.45300
H456        H  0.88647691  0.95519798  0.81323709     0.36700
C457        C  0.55183132  0.52388347  0.53058099    -0.27500
C458        C  0.50563618  0.49695513  0.51542345     0.02100
C459        C  0.46009633  0.46966352  0.53135970     0.30200
C460        C  0.46110680  0.47014147  0.56213635    -0.19300
C461        C  0.50722107  0.49776683  0.57749600    -0.28700
C462        C  0.55293253  0.52474086  0.56135294     0.44200
C463        C  0.50547949  0.49710987  0.48293587     0.05400
O464        O  0.41476303  0.44073871  0.51697805    -0.57200
H465        H  0.42559564  0.44857643  0.57396897     0.18300
O466        O  0.59891178  0.55220507  0.57530174    -0.63900
H467        H  0.58713852  0.54488515  0.51846646     0.16800
C468        C  0.47902247  0.51649063  0.46716937     0.29000
C469        C  0.47821013  0.51494865  0.43642904    -0.24800
C470        C  0.50418231  0.49480702  0.42085360    -0.24100
C471        C  0.53192493  0.47671735  0.43680777     0.40500
C472        C  0.53225243  0.47788888  0.46758094    -0.26600
O473        O  0.45409967  0.53731917  0.48161940    -0.58500
H474        H  0.45723626  0.52976444  0.42479369     0.16100
O475        O  0.55831151  0.45715692  0.42269425    -0.59900
H476        H  0.55309821  0.46324939  0.47954357     0.14600
H477        H  0.60409498  0.58701154  0.57734054     0.46400
H478        H  0.47983608  0.57371731  0.48421068     0.41800
H479        H  0.59342757  0.48622687  0.42051383     0.45300
H480        H  0.39562486  0.45910021  0.51950231     0.36700
C481        C  0.49682752  0.53207168  0.19706244    -0.27500
C482        C  0.49567487  0.49139090  0.18175656     0.02100
C483        C  0.49541862  0.45146339  0.19764377     0.30200
C484        C  0.49699115  0.45303710  0.22845095    -0.19300
C485        C  0.49797026  0.49369159  0.24380880    -0.28700
C486        C  0.49784607  0.53341406  0.22780988     0.44200
C487        C  0.49712096  0.49254390  0.14922057     0.05400
O488        O  0.49617462  0.41213459  0.18321236    -0.57200
H489        H  0.49722346  0.42221772  0.24034581     0.18300
O490        O  0.49975614  0.57426747  0.24192656    -0.63900
H491        H  0.49724087  0.56312453  0.18505801     0.16800
C492        C  0.45834403  0.45350951  0.13235299     0.29000
C493        C  0.46077512  0.45601500  0.10159993    -0.24800
C494        C  0.50095807  0.49779164  0.08727030    -0.24100
C495        C  0.53965766  0.53686062  0.10419305     0.40500
C496        C  0.53746051  0.53406530  0.13490064    -0.26600
O497        O  0.41744290  0.41334801  0.14568466    -0.58500
H498        H  0.43053197  0.42578892  0.08892495     0.16100
O499        O  0.58019776  0.57758361  0.09098032    -0.59900
H500        H  0.56760888  0.56428315  0.14763553     0.14600
H501        H  0.53650132  0.59868959  0.24485190     0.46400
H502        H  0.39266178  0.42505706  0.14910444     0.41800
H503        H  0.60510824  0.56621677  0.08701885     0.45300
H504        H  0.46207937  0.38199509  0.18652119     0.36700
C505        C  0.47049851  0.01309727  0.47091833    -0.27500
C506        C  0.51297996  0.01684492  0.48549584     0.02100
C507        C  0.55369304  0.02024373  0.46886728     0.30200
C508        C  0.55080277  0.01838734  0.43807907    -0.19300
C509        C  0.50804042  0.01411524  0.42345734    -0.28700
C510        C  0.46785120  0.01188848  0.44018295     0.44200
C511        C  0.51258529  0.01386629  0.51801019     0.05400
O512        O  0.59506305  0.02246903  0.48254507    -0.57200
H513        H  0.58206656  0.02011495  0.42561412     0.18300
O514        O  0.42510812  0.00696231  0.42680281    -0.63900
H515        H  0.43887917  0.01036354  0.48349138     0.16800
C516        C  0.55034300  0.05320442  0.53521857     0.29000
C517        C  0.54854795  0.04904330  0.56593651    -0.24800
C518        C  0.50864556  0.00651106  0.57992958    -0.24100
C519        C  0.47071106  0.96738216  0.56267366     0.40500
C520        C  0.47306516  0.97115254  0.53198298    -0.26600
O521        O  0.58852933  0.09624048  0.52229122    -0.58500
H522        H  0.57773888  0.07975032  0.57888037     0.16100
O523        O  0.43231042  0.92439084  0.57553299    -0.59900
H524        H  0.44396677  0.94045380  0.51898425     0.14600
H525        H  0.40198862  0.96983467  0.42459430     0.46400
H526        H  0.57387556  0.11857475  0.51896654     0.41800
H527        H  0.40259107  0.92965358  0.57592571     0.45300
H528        H  0.62337611  0.05769288  0.47937765     0.36700
C529        C  0.45431052  0.95116542  0.13661579    -0.27500
C530        C  0.49426087  0.99092367  0.15219580     0.02100
C531        C  0.53445715  0.03085037  0.13665465     0.30200
C532        C  0.53371907  0.03136462  0.10587138    -0.19300
C533        C  0.49329721  0.99216942  0.09016294    -0.28700
C534        C  0.45347142  0.95164960  0.10580301     0.44200
C535        C  0.49299283  0.99141658  0.18468916     0.05400
O536        O  0.57529732  0.06866854  0.15143682    -0.57200
H537        H  0.56505183  0.06238055  0.09425262     0.18300
O538        O  0.41294323  0.91302899  0.09127766    -0.63900
H539        H  0.42311827  0.92031366  0.14841787     0.16800
C540        C  0.48862050  0.02956212  0.19971445     0.29000
C541        C  0.48907855  0.03064983  0.23046518    -0.24800
C542        C  0.49385515  0.99392702  0.24675592    -0.24100
C543        C  0.49679414  0.95482457  0.23161200     0.40500
C544        C  0.49625700  0.95378177  0.20079053    -0.26600
O545        O  0.48413061  0.06614135  0.18449258    -0.58500
H546        H  0.48643906  0.06082744  0.24157210     0.16100
O547        O  0.50024329  0.91747413  0.24663156    -0.59900
H548        H  0.49906391  0.92391616  0.18940341     0.14600
H549        H  0.38861807  0.92543895  0.08823149     0.46400
H550        H  0.44743976  0.05048409  0.17982983     0.41800
H551        H  0.46454336  0.89052221  0.25028681     0.45300
H552        H  0.57093208  0.09889537  0.15030503     0.36700
C553        C  0.97490799  0.51990498  0.46827189    -0.27500
C554        C  0.99556780  0.49350808  0.48266334     0.02100
C555        C  0.01517974  0.46825099  0.46596111     0.30200
C556        C  0.01452874  0.47020380  0.43522772    -0.19300
C557        C  0.99461232  0.49731481  0.42064778    -0.28700
C558        C  0.97421353  0.52192760  0.43754325     0.44200
C559        C  0.99583293  0.49231653  0.51514694     0.05400
O560        O  0.03309520  0.43988659  0.47950938    -0.57200
H561        H  0.02971188  0.45030054  0.42282276     0.18300
O562        O  0.95453157  0.54901295  0.42440081    -0.63900
H563        H  0.95965250  0.53946027  0.48097056     0.16800
C564        C  0.04162269  0.51149598  0.53098524     0.29000
C565        C  0.04086316  0.51109113  0.56174395    -0.24800
C566        C  0.99480320  0.49224906  0.57723313    -0.24100
C567        C  0.94894680  0.47323110  0.56119555     0.40500
C568        C  0.94981973  0.47335265  0.53045099    -0.26600
O569        O  0.08740658  0.53156108  0.51662662    -0.58500
H570        H  0.07659554  0.52608276  0.57346231     0.16100
O571        O  0.90295825  0.45420016  0.57521042    -0.59900
H572        H  0.91434868  0.45860921  0.51845876     0.14600
H573        H  0.91744840  0.52492889  0.42291034     0.46400
H574        H  0.09747398  0.56750754  0.51260634     0.41800
H575        H  0.89695127  0.48337718  0.57687946     0.45300
H576        H  0.07033090  0.45851720  0.47609644     0.36700
C577        C  0.71904074  0.18845333  0.31245540    -0.27500
C578        C  0.72418793  0.23091475  0.32778926     0.02100
C579        C  0.68233849  0.22655346  0.34371932     0.30200
C580        C  0.63641035  0.18026421  0.34422140    -0.19300
C581        C  0.63169100  0.13746706  0.32947306    -0.28700
C582        C  0.67336908  0.14199676  0.31327620     0.44200
C583        C  0.77349198  0.27932323  0.32735725     0.05400
O584        O  0.68625444  0.26699298  0.35937799    -0.57200
H585        H  0.60482087  0.17746136  0.35685141     0.18300
O586        O  0.66977621  0.10143102  0.29791577    -0.63900
H587        H  0.75053436  0.19139569  0.29967346     0.16800
C588        C  0.81879913  0.28076864  0.33586614     0.29000
C589        C  0.86477600  0.32700488  0.33600192    -0.24800
C590        C  0.86662464  0.37247690  0.32768984    -0.24100
C591        C  0.82129857  0.37078895  0.31861606     0.40500
C592        C  0.77529582  0.32452548  0.31859540    -0.26600
O593        O  0.81804610  0.23758067  0.34553546    -0.58500
H594        H  0.89894571  0.32731382  0.34322587     0.16100
O595        O  0.82136033  0.41399836  0.30973171    -0.59900
H596        H  0.74086740  0.32389430  0.31157414     0.14600
H597        H  0.65474092  0.10208397  0.27864877     0.46400
H598        H  0.83267585  0.22728794  0.32918219     0.41800
H599        H  0.82720533  0.41592462  0.28815529     0.45300
H600        H  0.70140361  0.26601067  0.37852773     0.36700
C601        C  0.18315716  0.72588515  0.34862984    -0.27500
C602        C  0.22755040  0.72808666  0.33783831     0.02100
C603        C  0.22481848  0.68340671  0.32677858     0.30200
C604        C  0.17829327  0.63768611  0.32655723    -0.19300
C605        C  0.13364228  0.63573465  0.33675643    -0.28700
C606        C  0.13652258  0.68040244  0.34804249     0.44200
C607        C  0.27627656  0.77721275  0.33808504     0.05400
O608        O  0.26718717  0.68418390  0.31560897    -0.57200
H609        H  0.17697600  0.60390432  0.31771152     0.18300
O610        O  0.09411469  0.68011958  0.35872606    -0.63900
H611        H  0.18467242  0.75958311  0.35775083     0.16800
C612        C  0.27955200  0.82132441  0.32574228     0.29000
C613        C  0.32570234  0.86735846  0.32633880    -0.24800
C614        C  0.36936914  0.87043193  0.33899945    -0.24100
C615        C  0.36605685  0.82627521  0.35142233     0.40500
C616        C  0.31979568  0.78025150  0.35093613    -0.26600
O617        O  0.23846209  0.81920615  0.31175507    -0.58500
H618        H  0.32748321  0.90057469  0.31628116     0.16100
O619        O  0.40761573  0.82758497  0.36422015    -0.59900
H620        H  0.31779670  0.74686292  0.36088353     0.14600
H621        H  0.09269190  0.67151681  0.37990466     0.46400
H622        H  0.22640549  0.83695746  0.32502660     0.41800
H623        H  0.40703828  0.83716517  0.38501574     0.45300
H624        H  0.26891205  0.69438027  0.29472485     0.36700
C625        C  0.02906675  0.55371568  0.13382861    -0.27500
C626        C  0.01165826  0.50819868  0.14942875     0.02100
C627        C  0.99373028  0.46224498  0.13398256     0.30200
C628        C  0.99298578  0.46226612  0.10322036    -0.19300
C629        C  0.01041687  0.50784036  0.08741880    -0.28700
C630        C  0.02897413  0.55394917  0.10308613     0.44200
C631        C  0.01088072  0.50907534  0.18185353     0.05400
O632        O  0.97446897  0.41693080  0.14881220    -0.57200
H633        H  0.97835588  0.42633570  0.09176540     0.18300
O634        O  0.04578867  0.59931523  0.08871439    -0.63900
H635        H  0.04282970  0.58927888  0.14558686     0.16800
C636        C  0.03838262  0.49199930  0.19855794     0.29000
C637        C  0.03606090  0.49216147  0.22923618    -0.24800
C638        C  0.00699010  0.50987009  0.24378468    -0.24100
C639        C  0.98024933  0.52794387  0.22690766     0.40500
C640        C  0.98255165  0.52760454  0.19619436    -0.26600
O641        O  0.06791971  0.47541867  0.18511102    -0.58500
H642        H  0.05735499  0.47854673  0.24164420     0.16100
O643        O  0.95156907  0.54580138  0.24006507    -0.59900
H644        H  0.96148903  0.54114723  0.18347598     0.14600
H645        H  0.08318300  0.61426149  0.08704681     0.46400
H646        H  0.10119103  0.50651398  0.18167469     0.41800
H647        H  0.91690522  0.51581308  0.24173019     0.45300
H648        H  0.99985090  0.40576025  0.14607993     0.36700
C649        C  0.04489037  0.02571849  0.53316148    -0.27500
C650        C  0.99873540  0.99898954  0.51789529     0.02100
C651        C  0.95325254  0.97084902  0.53387531     0.30200
C652        C  0.95449234  0.97033001  0.56469446    -0.19300
C653        C  0.00070328  0.99733165  0.58004179    -0.28700
C654        C  0.04626178  0.02483115  0.56387642     0.44200
C655        C  0.99930834  0.99944524  0.48529536     0.05400
O656        O  0.90793828  0.94155957  0.51952583    -0.57200
H657        H  0.91910797  0.94820890  0.57655981     0.18300
O658        O  0.09234633  0.05187524  0.57777000    -0.63900
H659        H  0.08020018  0.04748011  0.52115326     0.16800
C660        C  0.96944059  0.01424466  0.46897847     0.29000
C661        C  0.97141957  0.01466322  0.43817998    -0.24800
C662        C  0.00298960  0.00055402  0.42315169    -0.24100
C663        C  0.03400693  0.98724855  0.43964178     0.40500
C664        C  0.03169183  0.98645530  0.47037045    -0.26600
O665        O  0.94025556  0.03077512  0.48297169    -0.58500
H666        H  0.94793860  0.02598379  0.42607418     0.16100
O667        O  0.06670588  0.97483802  0.42607735    -0.59900
H668        H  0.05533237  0.97552834  0.48265332     0.14600
H669        H  0.10671034  0.02883925  0.57813403     0.46400
H670        H  0.90456438  0.00617418  0.47754628     0.41800
H671        H  0.09926042  0.00739096  0.42424261     0.45300
H672        H  0.88618277  0.95614313  0.52483003     0.36700
C673        C  0.68259973  0.71420029  0.35110955    -0.27500
C674        C  0.72598147  0.71965415  0.33677500     0.02100
C675        C  0.72289173  0.67773396  0.32152859     0.30200
C676        C  0.67692665  0.63143013  0.32072504    -0.19300
C677        C  0.63324926  0.62636858  0.33452839    -0.28700
C678        C  0.63654829  0.66819921  0.35002719     0.44200
C679        C  0.77412676  0.76921745  0.33777807     0.05400
O680        O  0.76435788  0.68186511  0.30693831    -0.57200
H681        H  0.67517558  0.59974121  0.30873603     0.18300
O682        O  0.59518930  0.66442192  0.36457704    -0.63900
H683        H  0.68453091  0.74565928  0.36344054     0.16800
C684        C  0.77562793  0.81448631  0.32906547     0.29000
C685        C  0.82175179  0.86062494  0.32937949    -0.24800
C686        C  0.86699420  0.86268325  0.33844004    -0.24100
C687        C  0.86509653  0.81745991  0.34797342     0.40500
C688        C  0.81902310  0.77133144  0.34747510    -0.26600
O689        O  0.73268154  0.81356344  0.31876796    -0.58500
H690        H  0.82217974  0.89472548  0.32190465     0.16100
O691        O  0.90796216  0.81768753  0.35774832    -0.59900
H692        H  0.81831192  0.73701917  0.35481435     0.14600
H693        H  0.59559482  0.65038925  0.38422790     0.46400
H694        H  0.72189306  0.82831842  0.33479959     0.41800
H695        H  0.90960778  0.82488825  0.37913739     0.45300
H696        H  0.76331310  0.69506575  0.28714704     0.36700
C697        C  0.27854643  0.31294712  0.31677024    -0.27500
C698        C  0.27414784  0.26947418  0.33039465     0.02100
C699        C  0.31703771  0.27239487  0.34429275     0.30200
C700        C  0.36342045  0.31826016  0.34433954    -0.19300
C701        C  0.36762580  0.36199280  0.33109226    -0.28700
C702        C  0.32469453  0.35891578  0.31707090     0.44200
C703        C  0.22472303  0.22128690  0.32996859     0.05400
O704        O  0.31381420  0.23081955  0.35825380    -0.57200
H705        H  0.39590943  0.31987378  0.35528549     0.18300
O706        O  0.32751150  0.40038397  0.30320079    -0.63900
H707        H  0.24616024  0.31110787  0.30556872     0.16800
C708        C  0.18024259  0.21913524  0.34084120     0.29000
C709        C  0.13424815  0.17289296  0.34098496    -0.24800
C710        C  0.13165017  0.12825772  0.33025528    -0.24100
C711        C  0.17597202  0.13085516  0.31853780     0.40500
C712        C  0.22199307  0.17701772  0.31861540    -0.26600
O713        O  0.18193826  0.26150378  0.35272392    -0.58500
H714        H  0.10074971  0.17183350  0.35010892     0.16100
O715        O  0.17485714  0.08864771  0.30686162    -0.59900
H716        H  0.25570520  0.17834047  0.30962623     0.14600
H717        H  0.34021846  0.40015198  0.28311731     0.46400
H718        H  0.16641626  0.27326913  0.33768846     0.41800
H719        H  0.16430727  0.08738354  0.28604470     0.45300
H720        H  0.30134715  0.23139603  0.37835872     0.36700
C721        C  0.00108971  0.95937648  0.13566988    -0.27500
C722        C  0.99015942  0.99204274  0.15200766     0.02100
C723        C  0.97828484  0.02542848  0.13690544     0.30200
C724        C  0.97834421  0.02630761  0.10613523    -0.19300
C725        C  0.98855767  0.99311341  0.08994047    -0.28700
C726        C  0.99980788  0.95933439  0.10492344     0.44200
C727        C  0.99204975  0.99156608  0.18466638     0.05400
O728        O  0.96612750  0.05707105  0.15196684    -0.57200
H729        H  0.96947785  0.05239954  0.09488196     0.18300
O730        O  0.01088770  0.92700846  0.08973838    -0.63900
H731        H  0.01151605  0.93432456  0.14674625     0.16800
C732        C  0.96738902  0.94550865  0.20062173     0.29000
C733        C  0.96986794  0.94618776  0.23140932    -0.24800
C734        C  0.99584385  0.99236157  0.24659738    -0.24100
C735        C  0.02058792  0.03829168  0.23084447     0.40500
C736        C  0.01906498  0.03767390  0.20010872    -0.26600
O737        O  0.93855483  0.89999594  0.18640489    -0.58500
H738        H  0.95026412  0.91069203  0.24347811     0.16100
O739        O  0.04659974  0.08394700  0.24531939    -0.59900
H740        H  0.03923612  0.07337159  0.18830336     0.14600
H741        H  0.04788648  0.94706667  0.08562506     0.46400
H742        H  0.95767659  0.88151374  0.18841049     0.41800
H743        H  0.08083941  0.08862010  0.24924043     0.45300
H744        H  0.92948697  0.03592507  0.15670622     0.36700
loop_ 
_geom_bond_atom_site_label_1 
_geom_bond_atom_site_label_2 
_geom_bond_distance 
_geom_bond_site_symmetry_2 
_ccdc_geom_bond_type 
O1            V9   1.903   1_565  S
O1           C11   1.266       .  A
O2            V9   1.900   1_455  S
O2           C12   1.265       .  A
O3            V9   1.894       .  S
O3           C13   1.262   1_545  A
O4            V9   1.895       .  S
O4           C14   1.264   1_645  A
O5           V10   1.899       .  S
O5           C14   1.265       .  A
O6           V10   1.900       .  S
O6           C13   1.263   1_455  A
O7           V10   1.897   1_545  S
O7           C12   1.264       .  A
O8           V10   1.895   1_655  S
O8           C11   1.264       .  A
V9           V10   2.084   1_645  T
C11         C686   1.483       .  S
C12         C710   1.480       .  S
C13         C734   1.465       .  S
C14         C662   1.482   1_565  S
O15          V23   1.901       .  S
O15          C25   1.265       .  A
O16          V23   1.900   1_655  S
O16          C26   1.265       .  A
O17          V23   1.891       .  S
O17          C27   1.263       .  A
O18          V23   1.892       .  S
O18          C28   1.264   1_455  A
O19          V24   1.899       .  S
O19          C28   1.265       .  A
O20          V24   1.898       .  S
O20          C27   1.265   1_655  A
O21          V24   1.898       .  S
O21          C26   1.264       .  A
O22          V24   1.897   1_455  S
O22          C25   1.264       .  A
V23          V24   2.085   1_455  T
C25         C605   1.481       .  S
C26         C590   1.482       .  S
C27         C638   1.479       .  S
C28         C557   1.481       .  S
O29          V37   1.900       .  S
O29          C39   1.264       .  A
O30          V37   1.898   1_565  S
O30          C40   1.265       .  A
O31          V37   1.900       .  S
O31          C41   1.265       .  A
O32          V37   1.900       .  S
O32          C42   1.266   1_545  A
O33          V38   1.898       .  S
O33          C42   1.264       .  A
O34          V38   1.899       .  S
O34          C41   1.265   1_565  A
O35          V38   1.901       .  S
O35          C40   1.265       .  A
O36          V38   1.899   1_545  S
O36          C39   1.265       .  A
V37          V38   2.083   1_545  T
C39         C581   1.477       .  S
C40         C614   1.481       .  S
C41         C509   1.478       .  S
C42         C542   1.480       .  S
O43          V51   1.903       .  S
O43          C53   1.265       .  A
O44          V51   1.905       .  S
O44          C54   1.266       .  A
O45          V51   1.896       .  S
O45          C55   1.264       .  A
O46          V51   1.897       .  S
O46          C56   1.264       .  A
O47          V52   1.898       .  S
O47          C56   1.264       .  A
O48          V52   1.897       .  S
O48          C55   1.265       .  A
O49          V52   1.893       .  S
O49          C54   1.263       .  A
O50          V52   1.895       .  S
O50          C53   1.264       .  A
V51          V52   2.084       .  T
C53         C701   1.478       .  S
C54         C677   1.479       .  S
C55         C470   1.482       .  S
C56         C485   1.477       .  S
O57          V65   1.900   1_656  S
O57          C67   1.265   1_545  A
O58          V65   1.903       .  S
O58          C68   1.266   1_545  A
O59          V65   1.896   1_556  S
O59          C69   1.264   1_455  A
O60          V65   1.897       .  S
O60          C70   1.264   1_445  A
O61          V66   1.897       .  S
O61          C70   1.264       .  A
O62          V66   1.895   1_556  S
O62          C69   1.265   1_565  A
O63          V66   1.895   1_456  S
O63          C68   1.264   1_556  A
O64          V66   1.898       .  S
O64          C67   1.264   1_554  A
V65          V66   2.083   1_445  T
C67         C389   1.474       .  S
C68         C413   1.479   1_565  S
C69         C446   1.478       .  S
C70         C725   1.472       .  S
O71          V79   1.898   1_455  S
O71          C81   1.264       .  A
O72          V79   1.898   1_554  S
O72          C82   1.265       .  A
O73          V79   1.895       .  S
O73          C83   1.264   1_655  A
O74          V79   1.894   1_554  S
O74          C84   1.264   1_655  A
O75          V80   1.894   1_554  S
O75          C84   1.264       .  A
O76          V80   1.894       .  S
O76          C83   1.264       .  A
O77          V80   1.896   1_655  S
O77          C82   1.264   1_556  A
O78          V80   1.897       .  S
O78          C81   1.265       .  A
V79          V80   2.086   1_655  T
C81         C341   1.481       .  S
C82         C326   1.477       .  S
C83         C365   1.476   1_455  S
C84         C629   1.479       .  S
O85          V93   1.900   1_556  S
O85          C95   1.265       .  A
O86          V93   1.896       .  S
O86          C96   1.264   1_565  A
O87          V93   1.897   1_556  S
O87          C97   1.265   1_565  A
O88          V93   1.898       .  S
O88          C98   1.264       .  A
O89          V94   1.899       .  S
O89          C98   1.265   1_545  A
O90          V94   1.899   1_556  S
O90          C97   1.264       .  A
O91          V94   1.901       .  S
O91          C96   1.265       .  A
O92          V94   1.897       .  S
O92          C95   1.265   1_544  A
V93          V94   2.086   1_565  T
C95         C398   1.484       .  S
C96         C422   1.481       .  S
C97         C293   1.480       .  S
C98         C533   1.478       .  S
O99         V107   1.901       .  S
O99         C109   1.265       .  A
O100        V107   1.895   1_554  S
O100        C110   1.264   1_554  A
O101        V107   1.899       .  S
O101        C111   1.263       .  A
O102        V107   1.899   1_554  S
O102        C112   1.265       .  A
O103        V108   1.896   1_554  S
O103        C112   1.263       .  A
O104        V108   1.895       .  S
O104        C111   1.263       .  A
O105        V108   1.899       .  S
O105        C110   1.265       .  A
O106        V108   1.894       .  S
O106        C109   1.263       .  A
V107        V108   2.086       .  T
C109        C350   1.474       .  S
C110        C317   1.480   1_556  S
C111        C278   1.466       .  S
C112        C494   1.475       .  S
O113        V121   1.903   1_565  S
O113        C123   1.266   1_455  A
O114        V121   1.903       .  S
O114        C124   1.265       .  A
O115        V121   1.894       .  S
O115        C125   1.263   1_545  A
O116        V121   1.894       .  S
O116        C126   1.263   1_545  A
O117        V122   1.899       .  S
O117        C126   1.265   1_655  A
O118        V122   1.896       .  S
O118        C125   1.265   1_655  A
O119        V122   1.893   1_545  S
O119        C124   1.263   1_655  A
O120        V122   1.895       .  S
O120        C123   1.263       .  A
V121        V122   2.086   1_445  T
C123        C221   1.480       .  S
C124        C254   1.479       .  S
C125        C437   1.477   1_565  S
C126        C653   1.481       .  S
O127        V135   1.900       .  S
O127        C137   1.265       .  A
O128        V135   1.897       .  S
O128        C138   1.264       .  A
O129        V135   1.892       .  S
O129        C139   1.263       .  A
O130        V135   1.892       .  S
O130        C140   1.263       .  A
O131        V136   1.899       .  S
O131        C140   1.265   1_455  A
O132        V136   1.899       .  S
O132        C139   1.265   1_455  A
O133        V136   1.898       .  S
O133        C138   1.264   1_455  A
O134        V136   1.898       .  S
O134        C137   1.264   1_455  A
V135        V136   2.085   1_655  T
C137        C230   1.480       .  S
C138        C245   1.478       .  S
C139        C374   1.479       .  S
C140        C566   1.481       .  S
O141        V149   1.899       .  S
O141        C151   1.264   1_545  A
O142        V149   1.898       .  S
O142        C152   1.264       .  A
O143        V149   1.897       .  S
O143        C153   1.264       .  A
O144        V149   1.901   1_565  S
O144        C154   1.265       .  A
O145        V150   1.898       .  S
O145        C154   1.265       .  A
O146        V150   1.898   1_545  S
O146        C153   1.264       .  A
O147        V150   1.898       .  S
O147        C152   1.264   1_565  A
O148        V150   1.898       .  S
O148        C151   1.265       .  A
V149        V150   2.087   1_545  T
C151        C302   1.480       .  S
C152        C518   1.476       .  S
C153        C206   1.476       .  S
C154        C182   1.483       .  S
O155        V163   1.897       .  S
O155        C165   1.264       .  A
O156        V163   1.900       .  S
O156        C166   1.265       .  A
O157        V163   1.895       .  S
O157        C167   1.264       .  A
O158        V163   1.896       .  S
O158        C168   1.263       .  A
O159        V164   1.898       .  S
O159        C168   1.264       .  A
O160        V164   1.898       .  S
O160        C167   1.265       .  A
O161        V164   1.898       .  S
O161        C166   1.264       .  A
O162        V164   1.901       .  S
O162        C165   1.265       .  A
V163        V164   2.084       .  T
C165        C173   1.478       .  S
C166        C197   1.481       .  S
C167        C461   1.481       .  S
C168        C269   1.470       .  S
C169        C170   1.405       .  A
C169        C174   1.401       .  A
C169        H179   1.083       .  S
C170        C175   1.486       .  S
C170        C171   1.410       .  A
C171        C172   1.398       .  A
C171        O176   1.372       .  S
C172        C173   1.403       .  A
C172        H177   1.084       .  S
C173        C174   1.411       .  A
C174        O178   1.372       .  S
C175        C180   1.409       .  A
C175        C184   1.403       .  A
O176        H192   0.992       .  S
O178        H189   0.992       .  S
C180        C181   1.402       .  A
C180        O185   1.372       .  S
C181        C182   1.406       .  A
C181        H186   1.083       .  S
C182        C183   1.412       .  A
C183        C184   1.399       .  A
C183        O187   1.372       .  S
C184        H188   1.084       .  S
O185        H190   0.993       .  S
O187        H191   0.992       .  S
C193        C194   1.403       .  A
C193        C198   1.399       .  A
C193        H203   1.083       .  S
C194        C199   1.483       .  S
C194        C195   1.409       .  A
C195        C196   1.399       .  A
C195        O200   1.372       .  S
C196        C197   1.406       .  A
C196        H201   1.083       .  S
C197        C198   1.411       .  A
C198        O202   1.371       .  S
C199        C204   1.409       .  A
C199        C208   1.404       .  A
O200        H216   0.992       .  S
O202        H213   0.992       .  S
C204        C205   1.399       .  A
C204        O209   1.372       .  S
C205        C206   1.403       .  A
C205        H210   1.084       .  S
C206        C207   1.410       .  A
C207        C208   1.400       .  A
C207        O211   1.372       .  S
C208        H212   1.083       .  S
O209        H214   0.992       .  S
O211        H215   0.993       .  S
C217        C218   1.403       .  A
C217        C222   1.399       .  A
C217        H227   1.083       .  S
C218        C223   1.484       .  S
C218        C219   1.410   1_655  A
C219        C220   1.400       .  A
C219        O224   1.372       .  S
C220        C221   1.404   1_455  A
C220        H225   1.084       .  S
C221        C222   1.412       .  A
C222        O226   1.372       .  S
C223        C228   1.409       .  A
C223        C232   1.404   1_655  A
O224        H240   0.992       .  S
O226        H237   0.993       .  S
C228        C229   1.401       .  A
C228        O233   1.372       .  S
C229        C230   1.405       .  A
C229        H234   1.084       .  S
C230        C231   1.411   1_655  A
C231        C232   1.399       .  A
C231        O235   1.372       .  S
C232        H236   1.084       .  S
O233        H238   0.992       .  S
O235        H239   0.992       .  S
C241        C242   1.404   1_655  A
C241        C246   1.398       .  A
C241        H251   1.083       .  S
C242        C247   1.483       .  S
C242        C243   1.409       .  A
C243        C244   1.400       .  A
C243        O248   1.372       .  S
C244        C245   1.405   1_455  A
C244        H249   1.084       .  S
C245        C246   1.410       .  A
C246        O250   1.372       .  S
C247        C252   1.408   1_455  A
C247        C256   1.405       .  A
O248        H264   0.992       .  S
O250        H261   0.993       .  S
C252        C253   1.398       .  A
C252        O257   1.372       .  S
C253        C254   1.405   1_655  A
C253        H258   1.084       .  S
C254        C255   1.410       .  A
C255        C256   1.401       .  A
C255        O259   1.371       .  S
C256        H260   1.083       .  S
O257        H262   0.993       .  S
O259        H263   0.993       .  S
C265        C266   1.405       .  A
C265        C270   1.398       .  A
C265        H275   1.083       .  S
C266        C271   1.487       .  S
C266        C267   1.413       .  A
C267        C268   1.398       .  A
C267        O272   1.372       .  S
C268        C269   1.401       .  A
C268        H273   1.084       .  S
C269        C270   1.407       .  A
C270        O274   1.372       .  S
C271        C276   1.413       .  A
C271        C280   1.406       .  A
O272        H288   0.991       .  S
O274        H285   0.992       .  S
C276        C277   1.401       .  A
C276        O281   1.372       .  S
C277        C278   1.400       .  A
C277        H282   1.084       .  S
C278        C279   1.405       .  A
C279        C280   1.397       .  A
C279        O283   1.372       .  S
C280        H284   1.083       .  S
O281        H286   0.993       .  S
O283        H287   0.994       .  S
C289        C290   1.403       .  A
C289        C294   1.401       .  A
C289        H299   1.084       .  S
C290        C295   1.479       .  S
C290        C291   1.406   1_545  A
C291        C292   1.399       .  A
C291        O296   1.372       .  S
C292        C293   1.405   1_565  A
C292        H297   1.083       .  S
C293        C294   1.411       .  A
C294        O298   1.372       .  S
C295        C300   1.407   1_545  A
C295        C304   1.402       .  A
O296        H312   0.993       .  S
O298        H309   0.992       .  S
C300        C301   1.399       .  A
C300        O305   1.372       .  S
C301        C302   1.406       .  A
C301        H306   1.084       .  S
C302        C303   1.411   1_565  A
C303        C304   1.400       .  A
C303        O307   1.372       .  S
C304        H308   1.084       .  S
O305        H310   0.991   1_565  S
O307        H311   0.992       .  S
C313        C314   1.404   1_556  A
C313        C318   1.399       .  A
C313        H323   1.083       .  S
C314        C319   1.483       .  S
C314        C315   1.409       .  A
C315        C316   1.398       .  A
C315        O320   1.372       .  S
C316        C317   1.405       .  A
C316        H321   1.084       .  S
C317        C318   1.411   1_554  A
C318        O322   1.372       .  S
C319        C324   1.409       .  A
C319        C328   1.404   1_554  A
O320        H336   0.992       .  S
O322        H333   0.992       .  S
C324        C325   1.400       .  A
C324        O329   1.372       .  S
C325        C326   1.404       .  A
C325        H330   1.084       .  S
C326        C327   1.411   1_554  A
C327        C328   1.398       .  A
C327        O331   1.372       .  S
C328        H332   1.084       .  S
O329        H334   0.993       .  S
O331        H335   0.992       .  S
C337        C338   1.405       .  A
C337        C342   1.399       .  A
C337        H347   1.083       .  S
C338        C343   1.486       .  S
C338        C339   1.409   1_556  A
C339        C340   1.398       .  A
C339        O344   1.372       .  S
C340        C341   1.405   1_554  A
C340        H345   1.083       .  S
C341        C342   1.412       .  A
C342        O346   1.372       .  S
C343        C348   1.410   1_556  A
C343        C352   1.406       .  A
O344        H360   0.992       .  S
O346        H357   0.993       .  S
C348        C349   1.399       .  A
C348        O353   1.372       .  S
C349        C350   1.402   1_554  A
C349        H354   1.084       .  S
C350        C351   1.408       .  A
C351        C352   1.400       .  A
C351        O355   1.372       .  S
C352        H356   1.083       .  S
O353        H358   0.993       .  S
O355        H359   0.993       .  S
C361        C362   1.401       .  A
C361        C366   1.397       .  A
C361        H371   1.084       .  S
C362        C367   1.474       .  S
C362        C363   1.405   1_655  A
C363        C364   1.398       .  A
C363        O368   1.372       .  S
C364        C365   1.405   1_455  A
C364        H369   1.084       .  S
C365        C366   1.411       .  A
C366        O370   1.372       .  S
C367        C372   1.407   1_655  A
C367        C376   1.400       .  A
O368        H384   0.992       .  S
O370        H381   0.993   1_655  S
C372        C373   1.398       .  A
C372        O377   1.372       .  S
C373        C374   1.406   1_455  A
C373        H378   1.083       .  S
C374        C375   1.413       .  A
C375        C376   1.397       .  A
C375        O379   1.372       .  S
C376        H380   1.084       .  S
O377        H382   0.991       .  S
O379        H383   0.992       .  S
C385        C386   1.405   1_545  A
C385        C390   1.399       .  A
C385        H395   1.083       .  S
C386        C391   1.485       .  S
C386        C387   1.410   1_556  A
C387        C388   1.399       .  A
C387        O392   1.372       .  S
C388        C389   1.403   1_554  A
C388        H393   1.084       .  S
C389        C390   1.409   1_565  A
C390        O394   1.372       .  S
C391        C396   1.408   1_566  A
C391        C400   1.404       .  A
O392        H408   0.992       .  S
O394        H405   0.992       .  S
C396        C397   1.399       .  A
C396        O401   1.372       .  S
C397        C398   1.406   1_544  A
C397        H402   1.083       .  S
C398        C399   1.412       .  A
C399        C400   1.400       .  A
C399        O403   1.371       .  S
C400        H404   1.084       .  S
O401        H406   0.993   1_554  S
O403        H407   0.992       .  S
C409        C410   1.403   1_566  A
C409        C414   1.398       .  A
C409        H419   1.084       .  S
C410        C415   1.484       .  S
C410        C411   1.410       .  A
C411        C412   1.400       .  A
C411        O416   1.372       .  S
C412        C413   1.405       .  A
C412        H417   1.084       .  S
C413        C414   1.411   1_544  A
C414        O418   1.372       .  S
C415        C420   1.409   1_545  A
C415        C424   1.404   1_554  A
O416        H432   0.994       .  S
O418        H429   0.993       .  S
C420        C421   1.398       .  A
C420        O425   1.372       .  S
C421        C422   1.405   1_565  A
C421        H426   1.084       .  S
C422        C423   1.411   1_554  A
C423        C424   1.400       .  A
C423        O427   1.371       .  S
C424        H428   1.083       .  S
O425        H430   0.991       .  S
O427        H431   0.993       .  S
C433        C434   1.401   1_455  A
C433        C438   1.399       .  A
C433        H443   1.084       .  S
C434        C439   1.475       .  S
C434        C435   1.406   1_545  A
C435        C436   1.398       .  A
C435        O440   1.373       .  S
C436        C437   1.405   1_665  A
C436        H441   1.083       .  S
C437        C438   1.412       .  A
C438        O442   1.372       .  S
C439        C444   1.406   1_545  A
C439        C448   1.402   1_655  A
O440        H456   0.992       .  S
O442        H453   0.992       .  S
C444        C445   1.395       .  A
C444        O449   1.372       .  S
C445        C446   1.405   1_565  A
C445        H450   1.083       .  S
C446        C447   1.413   1_655  A
C447        C448   1.399       .  A
C447        O451   1.372       .  S
C448        H452   1.084       .  S
O449        H454   0.991       .  S
O451        H455   0.992       .  S
C457        C458   1.401       .  A
C457        C462   1.399       .  A
C457        H467   1.084       .  S
C458        C463   1.476       .  S
C458        C459   1.406       .  A
C459        C460   1.399       .  A
C459        O464   1.372       .  S
C460        C461   1.406       .  A
C460        H465   1.083       .  S
C461        C462   1.413       .  A
C462        O466   1.372       .  S
C463        C468   1.406       .  A
C463        C472   1.401       .  A
O464        H480   0.992       .  S
O466        H477   0.992       .  S
C468        C469   1.398       .  A
C468        O473   1.372       .  S
C469        C470   1.406       .  A
C469        H474   1.083       .  S
C470        C471   1.414       .  A
C471        C472   1.399       .  A
C471        O475   1.371       .  S
C472        H476   1.084       .  S
O473        H478   0.991       .  S
O475        H479   0.992       .  S
C481        C482   1.402       .  A
C481        C486   1.398       .  A
C481        H491   1.084       .  S
C482        C487   1.479       .  S
C482        C483   1.407       .  A
C483        C484   1.401       .  A
C483        O488   1.372       .  S
C484        C485   1.405       .  A
C484        H489   1.084       .  S
C485        C486   1.410       .  A
C486        O490   1.372       .  S
C487        C492   1.408       .  A
C487        C496   1.403       .  A
O488        H504   0.992       .  S
O490        H501   0.992       .  S
C492        C493   1.399       .  A
C492        O497   1.371       .  S
C493        C494   1.405       .  A
C493        H498   1.084       .  S
C494        C495   1.409       .  A
C495        C496   1.398       .  A
C495        O499   1.372       .  S
C496        H500   1.084       .  S
O497        H502   0.992       .  S
O499        H503   0.992       .  S
C505        C506   1.403       .  A
C505        C510   1.398       .  A
C505        H515   1.084       .  S
C506        C511   1.480       .  S
C506        C507   1.407       .  A
C507        C508   1.401       .  A
C507        O512   1.372       .  S
C508        C509   1.405       .  A
C508        H513   1.084       .  S
C509        C510   1.410       .  A
C510        O514   1.372       .  S
C511        C516   1.408       .  A
C511        C520   1.403   1_545  A
O512        H528   0.992       .  S
O514        H525   0.991   1_545  S
C516        C517   1.400       .  A
C516        O521   1.371       .  S
C517        C518   1.405       .  A
C517        H522   1.084       .  S
C518        C519   1.409   1_545  A
C519        C520   1.398       .  A
C519        O523   1.372       .  S
C520        H524   1.084       .  S
O521        H526   0.991       .  S
O523        H527   0.992       .  S
C529        C530   1.402       .  A
C529        C534   1.401       .  A
C529        H539   1.084       .  S
C530        C535   1.477       .  S
C530        C531   1.406   1_565  A
C531        C532   1.399       .  A
C531        O536   1.372       .  S
C532        C533   1.404   1_545  A
C532        H537   1.084       .  S
C533        C534   1.411       .  A
C534        O538   1.372       .  S
C535        C540   1.407   1_565  A
C535        C544   1.401       .  A
O536        H552   0.992       .  S
O538        H549   0.992       .  S
C540        C541   1.398       .  A
C540        O545   1.372       .  S
C541        C542   1.405   1_545  A
C541        H546   1.083       .  S
C542        C543   1.413       .  A
C543        C544   1.401       .  A
C543        O547   1.372       .  S
C544        H548   1.084       .  S
O545        H550   0.991       .  S
O547        H551   0.992       .  S
C553        C554   1.402       .  A
C553        C558   1.398       .  A
C553        H563   1.084       .  S
C554        C559   1.477       .  S
C554        C555   1.405   1_655  A
C555        C556   1.398       .  A
C555        O560   1.373       .  S
C556        C557   1.407   1_455  A
C556        H561   1.083       .  S
C557        C558   1.412       .  A
C558        O562   1.371       .  S
C559        C564   1.407   1_655  A
C559        C568   1.400       .  A
O560        H576   0.991       .  S
O562        H573   0.992       .  S
C564        C565   1.398       .  A
C564        O569   1.372       .  S
C565        C566   1.406   1_455  A
C565        H570   1.083       .  S
C566        C567   1.414       .  A
C567        C568   1.397       .  A
C567        O571   1.372       .  S
C568        H572   1.084       .  S
O569        H574   0.992       .  S
O571        H575   0.992       .  S
C577        C578   1.404       .  A
C577        C582   1.399       .  A
C577        H587   1.083       .  S
C578        C583   1.483       .  S
C578        C579   1.409       .  A
C579        C580   1.400       .  A
C579        O584   1.372       .  S
C580        C581   1.404       .  A
C580        H585   1.084       .  S
C581        C582   1.409       .  A
C582        O586   1.372       .  S
C583        C588   1.408       .  A
C583        C592   1.403       .  A
O584        H600   0.992       .  S
O586        H597   0.992       .  S
C588        C589   1.400       .  A
C588        O593   1.372       .  S
C589        C590   1.405       .  A
C589        H594   1.083       .  S
C590        C591   1.412       .  A
C591        C592   1.400       .  A
C591        O595   1.372       .  S
C592        H596   1.084       .  S
O593        H598   0.993       .  S
O595        H599   0.993       .  S
C601        C602   1.404       .  A
C601        C606   1.399       .  A
C601        H611   1.083       .  S
C602        C607   1.485       .  S
C602        C603   1.410       .  A
C603        C604   1.400       .  A
C603        O608   1.372       .  S
C604        C605   1.405       .  A
C604        H609   1.083       .  S
C605        C606   1.411       .  A
C606        O610   1.372       .  S
C607        C612   1.409       .  A
C607        C616   1.405       .  A
O608        H624   0.991       .  S
O610        H621   0.992       .  S
C612        C613   1.399       .  A
C612        O617   1.372       .  S
C613        C614   1.405       .  A
C613        H618   1.084       .  S
C614        C615   1.411       .  A
C615        C616   1.401       .  A
C615        O619   1.371       .  S
C616        H620   1.083       .  S
O617        H622   0.993       .  S
O619        H623   0.991       .  S
C625        C626   1.400       .  A
C625        C630   1.397       .  A
C625        H635   1.084       .  S
C626        C631   1.474       .  S
C626        C627   1.406   1_455  A
C627        C628   1.398       .  A
C627        O632   1.373       .  S
C628        C629   1.406   1_655  A
C628        H633   1.083       .  S
C629        C630   1.413       .  A
C630        O634   1.371       .  S
C631        C636   1.405       .  A
C631        C640   1.401   1_455  A
O632        H648   0.993       .  S
O634        H645   0.992       .  S
C636        C637   1.396       .  A
C636        O641   1.372       .  S
C637        C638   1.407       .  A
C637        H642   1.083       .  S
C638        C639   1.412   1_455  A
C639        C640   1.398       .  A
C639        O643   1.371       .  S
C640        H644   1.084       .  S
O641        H646   0.991       .  S
O643        H647   0.992       .  S
C649        C650   1.402   1_445  A
C649        C654   1.397       .  A
C649        H659   1.084       .  S
C650        C655   1.481       .  S
C650        C651   1.408       .  A
C651        C652   1.401       .  A
C651        O656   1.373       .  S
C652        C653   1.406   1_655  A
C652        H657   1.083       .  S
C653        C654   1.412   1_565  A
C654        O658   1.372       .  S
C655        C660   1.407   1_565  A
C655        C664   1.403   1_655  A
O656        H672   0.991       .  S
O658        H669   0.992       .  S
C660        C661   1.401       .  A
C660        O665   1.373       .  S
C661        C662   1.406   1_655  A
C661        H666   1.083       .  S
C662        C663   1.411   1_545  A
C663        C664   1.398       .  A
C663        O667   1.371       .  S
C664        H668   1.084       .  S
O665        H670   0.992       .  S
O667        H671   0.992   1_565  S
C673        C674   1.403       .  A
C673        C678   1.398       .  A
C673        H683   1.083       .  S
C674        C679   1.484       .  S
C674        C675   1.410       .  A
C675        C676   1.401       .  A
C675        O680   1.372       .  S
C676        C677   1.404       .  A
C676        H681   1.084       .  S
C677        C678   1.411       .  A
C678        O682   1.372       .  S
C679        C684   1.409       .  A
C679        C688   1.403       .  A
O680        H696   0.992       .  S
O682        H693   0.992       .  S
C684        C685   1.400       .  A
C684        O689   1.372       .  S
C685        C686   1.405       .  A
C685        H690   1.083       .  S
C686        C687   1.413       .  A
C687        C688   1.400       .  A
C687        O691   1.372       .  S
C688        H692   1.084       .  S
O689        H694   0.993       .  S
O691        H695   0.992       .  S
C697        C698   1.402       .  A
C697        C702   1.398       .  A
C697        H707   1.083       .  S
C698        C703   1.482       .  S
C698        C699   1.409       .  A
C699        C700   1.400       .  A
C699        O704   1.372       .  S
C700        C701   1.404       .  A
C700        H705   1.084       .  S
C701        C702   1.411       .  A
C702        O706   1.372       .  S
C703        C708   1.408       .  A
C703        C712   1.403       .  A
O704        H720   0.992       .  S
O706        H717   0.992       .  S
C708        C709   1.400       .  A
C708        O713   1.372       .  S
C709        C710   1.405       .  A
C709        H714   1.083       .  S
C710        C711   1.412       .  A
C711        C712   1.399       .  A
C711        O715   1.372       .  S
C712        H716   1.084       .  S
O713        H718   0.992       .  S
O715        H719   0.993       .  S
C721        C722   1.405   1_455  A
C721        C726   1.398   1_455  A
C721        H731   1.083       .  S
C722        C727   1.486       .  S
C722        C723   1.412   1_565  A
C723        C724   1.399       .  A
C723        O728   1.372       .  S
C724        C725   1.402   1_545  A
C724        H729   1.084       .  S
C725        C726   1.408       .  A
C726        O730   1.372   1_655  S
C727        C732   1.412       .  A
C727        C736   1.406   1_665  A
O728        H744   0.991       .  S
O730        H741   0.991       .  S
C732        C733   1.401       .  A
C732        O737   1.372       .  S
C733        C734   1.399       .  A
C733        H738   1.084       .  S
C734        C735   1.405   1_665  A
C735        C736   1.397       .  A
C735        O739   1.372       .  S
C736        H740   1.083       .  S
O737        H742   0.993       .  S
O739        H743   0.992       .  S
