geometry optimzed in LAMMPS
_audit_creation_date              2020-11-30 
_audit_creation_method            'lammps2cif' 
_symmetry_space_group_name_H-M    'P1' 
_symmetry_Int_Tables_number       1 
_symmetry_cell_setting            triclinic 
loop_ 
_symmetry_equiv_pos_as_xyz 
  x,y,z 
_cell_length_a                    44.211020760072365 
_cell_length_b                    47.814322621985205 
_cell_length_c                    26.114919492376096 
_cell_angle_alpha                 89.98141822642178 
_cell_angle_beta                  89.48835822236775 
_cell_angle_gamma                 113.93304596031125 
loop_ 
_atom_site_label 
_atom_site_type_symbol 
_atom_site_fract_x 
_atom_site_fract_y 
_atom_site_fract_z 
_atom_site_charge 
O1          O  0.28212756  0.33910737  0.58501798    -0.80360
O2          O  0.27536916  0.46018014  0.66330664    -0.65050
O3          O  0.30396386  0.39621040  0.63857628    -1.11650
C4          C  0.23173436  0.35163487  0.77813661     1.06530
O5          O  0.28674988  0.46055612  0.74469104    -0.78260
O6          O  0.30929908  0.41830758  0.78161413    -0.65840
Ni7        Ni  0.30553439  0.38267968  0.56893214     1.34870
C8          C  0.31871220  0.39701417  0.77133998     0.85260
O9          O  0.31993111  0.45522987  0.60054796    -0.78800
O10         O  0.32826134  0.42450574  0.54256936    -0.89070
C11         C  0.27382349  0.46936690  0.70822921     0.84840
O12         O  0.26448633  0.38214118  0.54706311    -0.67270
O13         O  0.24414726  0.37866275  0.79624995    -0.86560
C14         C  0.24752934  0.39653011  0.56210130     0.85670
C15         C  0.33059212  0.45078950  0.55755532     1.07240
H16         H  0.23900288  0.39829100  0.69012755     0.39040
O17         O  0.26165188  0.40333044  0.69980611    -1.09220
O18         O  0.30454281  0.37702234  0.73750147    -0.65870
Ni19       Ni  0.27154028  0.36938687  0.68590575     1.26350
O20         O  0.25514201  0.41451562  0.60036183    -0.66100
O21         O  0.23864710  0.34488665  0.73352060    -0.78390
C22         C  0.27552548  0.32280251  0.62569220     0.85050
O23         O  0.28083804  0.33510846  0.66934892    -0.65570
Ni24       Ni  0.26666268  0.41894731  0.76822709     1.27450
Ni25       Ni  0.29062505  0.42912800  0.64957394     1.26060
H26         H  0.32582219  0.40219259  0.65262125     0.39590
O27         O  0.15555995  0.20704412  0.08774398    -0.80360
O28         O  0.02019677  0.20649452  0.02688246    -0.65050
O29         O  0.09295262  0.18264840  0.03796277    -1.11650
C30         C  0.13453270  0.25613115  0.90367206     1.06530
O31         O  0.02110999  0.19559075  0.94669872    -0.78260
O32         O  0.06772181  0.18296322  0.89373597    -0.65840
Ni33       Ni  0.11014964  0.17924981  0.10408204     1.34870
C34         C  0.09079095  0.17403797  0.90154600     0.85260
O35         O  0.03018487  0.16480167  0.08530221    -0.78800
O36         O  0.06645928  0.15178958  0.12837156    -0.89070
C37         C  0.51259450  0.20960451  0.98125948     0.84840
O38         O  0.10551312  0.21286547  0.13674627    -0.67270
O39         O  0.10464592  0.24486692  0.88860621    -0.86560
C40         C  0.09046380  0.22941711  0.12450048     0.85670
C41         C  0.03720790  0.15003859  0.12038235     1.07240
H42         H  0.08734287  0.24242129  0.99561189     0.39040
O43         O  0.08184426  0.22181090  0.98373384    -1.09220
O44         O  0.11177534  0.18499978  0.93703730    -0.65870
Ni45       Ni  0.11997868  0.21442218  0.99124195     1.26350
O46         O  0.07200124  0.22458399  0.08562691    -0.66100
O47         O  0.14414159  0.24688586  0.94402029    -0.78390
C48         C  0.17279112  0.21461089  0.04662053     0.85050
O49         O  0.15885875  0.20787574  0.00356673    -0.65570
Ni50       Ni  0.06300558  0.21914507  0.91767946     1.27450
Ni51       Ni  0.05561136  0.19330687  0.03460370     1.26060
H52         H  0.08671487  0.16304129  0.02158182     0.39590
O53         O  0.19513341  0.17304300  0.58020414    -0.80360
O54         O  0.20796287  0.05961535  0.67434586    -0.65050
O55         O  0.17399584  0.11838122  0.64101626    -1.11650
C56         C  0.24010465  0.16925094  0.77901649     1.06530
O57         O  0.19393140  0.05897473  0.75616342    -0.78260
O58         O  0.16411145  0.09862916  0.78077016    -0.65840
Ni59       Ni  0.17092244  0.12899539  0.57043149     1.34870
C60         C  0.15483854  0.11992282  0.77019546     0.85260
O61         O  0.16451109  0.05980749  0.60619540    -0.78800
O62         O  0.14717553  0.08610998  0.55137586    -0.89070
C63         C  0.20576636  0.04897891  0.71927438     0.84840
O64         O  0.21099662  0.12801960  0.54588369    -0.67270
O65         O  0.22620988  0.14289592  0.79992175    -0.86560
C66         C  0.23126791  0.11826964  0.56447033     0.85670
C67         C  0.14948104  0.06146906  0.56598757     1.07240
H68         H  0.23953310  0.12170360  0.69785926     0.39040
O69         O  0.21630439  0.11570269  0.70552637    -1.09220
O70         O  0.17018331  0.14041372  0.73710963    -0.65870
Ni71       Ni  0.20446779  0.14776876  0.68637321     1.26350
O72         O  0.22709383  0.10451358  0.60750896    -0.66100
O73         O  0.23560325  0.17506823  0.73269001    -0.78390
C74         C  0.19998401  0.19058394  0.61885043     0.85050
O75         O  0.19353544  0.17982282  0.66376377    -0.65570
Ni76       Ni  0.20882067  0.10160560  0.77483137     1.27450
Ni77       Ni  0.19046180  0.08808734  0.65566966     1.26060
H78         H  0.15193461  0.11134116  0.65542036     0.39590
O79         O  0.42793860  0.17514671  0.42592448    -0.80360
O80         O  0.31543647  0.06278835  0.33114804    -0.65050
O81         O  0.40133761  0.12063953  0.36559467    -1.11650
C82         C  0.38733658  0.17357886  0.22449618     1.06530
O83         O  0.32542854  0.06379638  0.24747322    -0.78260
O84         O  0.39254484  0.09771689  0.23272069    -0.65840
Ni85       Ni  0.41282344  0.13097492  0.43603521     1.34870
C86         C  0.42134973  0.11784655  0.24193320     0.85260
O87         O  0.35888634  0.06185015  0.40026525    -0.78800
O88         O  0.40022007  0.08820237  0.45369012    -0.89070
C89         C  0.30629512  0.05360382  0.28613675     0.84840
O90         O  0.37073923  0.12861992  0.46063879    -0.67270
O91         O  0.37856710  0.14706862  0.20468310    -0.86560
C92         C  0.34207025  0.11916530  0.44107703     0.85430
C93         C  0.37694612  0.06342477  0.43874633     1.07240
H94         H  0.34000649  0.12572699  0.30749764     0.39040
O95         O  0.35763746  0.11924378  0.30014152    -1.09220
O96         O  0.42568663  0.14093915  0.27008307    -0.65870
Ni97       Ni  0.39836192  0.15057978  0.31948037     1.26350
O98         O  0.33592773  0.10698918  0.39698093    -0.66100
O99         O  0.39278521  0.17832472  0.27222138    -0.78390
C100        C  0.44256565  0.19227009  0.38790465     0.85050
O101        O  0.43830485  0.18241155  0.34232984    -0.65570
Ni102      Ni  0.35362401  0.10596939  0.23052570     1.27450
Ni103      Ni  0.35829579  0.09072200  0.35004813     1.26060
H104        H  0.41712772  0.11319622  0.35229216     0.39590
O105        O  0.04178236  0.33826459  0.43080270    -0.80360
O106        O  0.16191063  0.45476506  0.33657960    -0.65050
O107        O  0.07687462  0.39203164  0.37031126    -1.11650
C108        C  0.10700134  0.33572012  0.24590411     1.06530
O109        O  0.15584768  0.44740594  0.25310993    -0.78260
O110        O  0.09694096  0.40478562  0.22166558    -0.65840
Ni111      Ni  0.06693333  0.38206331  0.44189169     1.34870
C112        C  0.06760920  0.38732232  0.23483025     0.85260
O113        O  0.11181331  0.45380502  0.39524977    -0.78800
O114        O  0.08912523  0.42461160  0.46384722    -0.89070
C115        C  0.17272156  0.46160173  0.29112929     0.84840
O116        O  0.10587752  0.37486995  0.45275776    -0.67270
O117        O  0.12286936  0.36151231  0.22432243    -0.86560
C118        C  0.13550589  0.39320914  0.44291845     0.85670
C119        C  0.10339488  0.45073345  0.44212247     1.07240
H120        H  0.14276857  0.38887207  0.32841311     0.39040
O121        O  0.12583600  0.39413120  0.31358404    -1.09220
O122        O  0.06061911  0.36976510  0.27375991    -0.65870
Ni123      Ni  0.08431662  0.36191415  0.32963398     1.26350
O124        O  0.14230727  0.41480294  0.41028433    -0.66100
O125        O  0.09318564  0.33275066  0.28962756    -0.78390
C126        C  0.03204638  0.32092102  0.39183468     0.85050
O127        O  0.04312063  0.32975312  0.34725679    -0.65570
Ni128      Ni  0.13785113  0.40391057  0.24272130     1.27450
Ni129      Ni  0.11929331  0.42419615  0.35452098     1.26060
H130        H  0.05962624  0.39698268  0.35575037     0.39590
O131        O  0.33062028  0.30639998  0.09344522    -0.80360
O132        O  0.46068522  0.30809972  0.99554636    -0.65050
O133        O  0.39052883  0.33067264  0.03243667    -1.11650
C134        C  0.33665124  0.26334879  0.89871376     1.06530
O135        O  0.45585005  0.31387840  0.91307795    -0.78260
O136        O  0.40867233  0.33499372  0.88635029    -0.65840
Ni137      Ni  0.37810168  0.32964621  0.10431643     1.34870
C138        C  0.38540237  0.34304121  0.89836457     0.85260
O139        O  0.45634647  0.34858558  0.06068310    -0.78800
O140        O  0.42403886  0.35102781  0.12570172    -0.89070
C141        C  0.46779177  0.30440150  0.94986393     0.84840
O142        O  0.37998095  0.29203116  0.12214037    -0.67270
O143        O  0.36461395  0.27531043  0.87602085    -0.86560
C144        C  0.39744903  0.27881709  0.10458888     0.85670
C145        C  0.45237472  0.35551525  0.10637134     1.07240
H146        H  0.39231676  0.27139273  0.97921658     0.39040
O147        O  0.39676067  0.29207053  0.96862428    -1.09220
O148        O  0.36561457  0.33078343  0.93554239    -0.65870
Ni149      Ni  0.36026439  0.30062646  0.98803056     1.26350
O150        O  0.41597511  0.28788024  0.06512915    -0.66100
O151        O  0.33112170  0.26964971  0.94427564    -0.78390
C152        C  0.31208926  0.30073885  0.05430723     0.85050
O153        O  0.32463872  0.30907290  0.01051985    -0.65570
Ni154      Ni  0.40957296  0.29564366  0.89767169     1.27450
Ni155      Ni  0.42667769  0.32031937  0.01493907     1.26060
H156        H  0.39525069  0.35092693  0.01934252     0.39590
C157        C  0.04037462  0.38356924  0.19935597    -0.04810
C158        C  0.03486666  0.36263306  0.15911983    -0.01920
C159        C  0.00496430  0.35203643  0.13260091     0.03070
C160        C  0.48257914  0.36629995  0.13896450    -0.04800
C161        C  0.48901694  0.38880376  0.17745442    -0.01910
C162        C  0.01728608  0.39651795  0.20894914     0.03060
C163        C  0.05950166  0.35094930  0.14552741     0.37710
C164        C  0.46642886  0.40346421  0.18546457     0.37700
C165        C  0.52269205  0.41765627  0.25107499     0.36130
C166        C  0.99518809  0.32303205  0.10607498     0.36130
N167        N  0.52703323  0.43448397  0.28482858    -0.38690
N168        N  0.98762180  0.29910170  0.08792413    -0.38690
N169        N  0.44838426  0.41518594  0.19192098    -0.38140
N170        N  0.07884908  0.34171875  0.13279194    -0.38140
C171        C  0.39641334  0.25165404  0.13244994    -0.04810
C172        C  0.41692283  0.25521887  0.17513876    -0.01920
C173        C  0.41602910  0.22937589  0.20184302     0.03070
C174        C  0.39169992  0.20000805  0.19045247    -0.04800
C175        C  0.37040962  0.19658842  0.14828095    -0.01910
C176        C  0.37349090  0.22229515  0.11857703     0.03060
C177        C  0.43729046  0.28541822  0.19434623     0.37710
C178        C  0.34425159  0.16707448  0.13654687     0.37700
C179        C  0.35194525  0.21884056  0.07520750     0.36130
C180        C  0.44101177  0.23300163  0.23987226     0.36130
N181        N  0.33478935  0.21622210  0.04066976    -0.38690
N182        N  0.46106179  0.23540415  0.26972026    -0.38690
N183        N  0.32327892  0.14359643  0.12716222    -0.38140
N184        N  0.45301075  0.30905224  0.21185776    -0.38140
C185        C  0.00804136  0.28839500  0.39824859    -0.04810
C186        C  0.01974138  0.26564000  0.40973072    -0.01920
C187        C  0.99803045  0.23423994  0.40871190     0.03070
C188        C  0.46438058  0.22524477  0.39620592    -0.04800
C189        C  0.45240049  0.24804707  0.38668777    -0.01910
C190        C  0.47418210  0.27944787  0.38726820     0.03060
C191        C  0.05455577  0.27454897  0.42042229     0.37710
C192        C  0.41776103  0.23909074  0.37470780     0.37700
C193        C  0.46198154  0.30257141  0.37508954     0.36130
C194        C  0.01059531  0.21111028  0.41877863     0.36130
N195        N  0.45229695  0.32106193  0.36529708    -0.38690
N196        N  0.02068474  0.19269427  0.42686992    -0.38690
N197        N  0.39011841  0.23188583  0.36508656    -0.38140
N198        N  0.08236332  0.28173777  0.42880187    -0.38140
C199        C  0.20611043  0.48610677  0.28225780    -0.04810
C200        C  0.21270129  0.01677125  0.29392876    -0.01920
C201        C  0.24536368  0.03928752  0.29043619     0.03070
C202        C  0.27187668  0.03084565  0.27915084    -0.04800
C203        C  0.26511880  0.50055736  0.26460622    -0.01910
C204        C  0.23213564  0.47842185  0.26456531     0.03060
C205        C  0.18586372  0.02513933  0.30916676     0.37710
C206        C  0.29213769  0.49192618  0.25177703     0.37700
C207        C  0.22513995  0.44752983  0.24769003     0.36130
C208        C  0.25177317  0.07125359  0.29824172     0.36130
N209        N  0.21956137  0.42291820  0.23402313    -0.38690
N210        N  0.25694979  0.09676520  0.30428688    -0.38690
N211        N  0.31372488  0.48502307  0.24176248    -0.38140
N212        N  0.16443335  0.03180089  0.32131834    -0.38140
C213        C  0.13662861  0.03327755  0.53352213    -0.04810
C214        C  0.15721322  0.01732675  0.52463498    -0.01920
C215        C  0.14610080  0.49063887  0.49466549     0.03070
C216        C  0.11404907  0.47884216  0.47391839    -0.04800
C217        C  0.09338009  0.49451826  0.48234795    -0.01910
C218        C  0.10468664  0.02178010  0.51178127     0.03060
C219        C  0.19062452  0.02869550  0.54483304     0.37710
C220        C  0.06055659  0.48261369  0.46052149     0.37700
C221        C  0.08307514  0.03735970  0.52094234     0.36130
C222        C  0.16832962  0.47572444  0.48452684     0.36130
N223        N  0.06577729  0.04977142  0.52827937    -0.38690
N224        N  0.18690751  0.46472004  0.47699434    -0.38690
N225        N  0.03434783  0.47307605  0.44306019    -0.38140
N226        N  0.21722959  0.03739978  0.56070116    -0.38140
C227        C  0.25988397  0.12105482  0.53186824    -0.04810
C228        C  0.25409837  0.10386367  0.48658423    -0.01920
C229        C  0.28061310  0.10150360  0.45983793     0.03070
C230        C  0.31388219  0.12122952  0.47145583    -0.04800
C231        C  0.31942500  0.14129309  0.51404422    -0.01910
C232        C  0.29257399  0.13992747  0.54554396     0.03060
C233        C  0.22066588  0.08792561  0.46751984     0.37710
C234        C  0.35246074  0.16331584  0.52612758     0.37700
C235        C  0.29837516  0.15866725  0.59110659     0.36130
C236        C  0.27283360  0.07497889  0.42733029     0.36130
N237        N  0.30285604  0.17355447  0.62751844    -0.38690
N238        N  0.26547915  0.05245283  0.40464338    -0.38690
N239        N  0.37876330  0.18100522  0.53586936    -0.38140
N240        N  0.19431651  0.07570198  0.45110130    -0.38140
C241        C  0.31033840  0.23912321  0.87091643    -0.04810
C242        C  0.31352673  0.21132028  0.86264523    -0.01920
C243        C  0.29125238  0.18916791  0.83057719     0.03070
C244        C  0.26396849  0.19354866  0.81041556    -0.04800
C245        C  0.25973154  0.22060036  0.82109360    -0.01910
C246        C  0.28399965  0.24416063  0.84892529     0.03060
C247        C  0.33994798  0.20558421  0.88686667     0.37710
C248        C  0.22956635  0.22327099  0.80627560     0.37700
C249        C  0.28341933  0.27416664  0.85120439     0.36130
C250        C  0.29736996  0.16253655  0.81651431     0.36130
N251        N  0.28360209  0.29841699  0.85117479    -0.38690
N252        N  0.30274419  0.14165825  0.80479027    -0.38690
N253        N  0.20488536  0.22477869  0.79602185    -0.38140
N254        N  0.36076725  0.20084034  0.90650542    -0.38140
C255        C  0.00945337  0.13187555  0.15547463    -0.04810
C256        C  0.47828004  0.11348361  0.13482434    -0.01920
C257        C  0.44914646  0.10595918  0.16451978     0.03070
C258        C  0.45108007  0.11654742  0.21566679    -0.04800
C259        C  0.48271408  0.13052285  0.23846181    -0.01910
C260        C  0.01175538  0.13856252  0.20832631     0.03060
C261        C  0.47613969  0.10368294  0.08186877     0.37710
C262        C  0.48556055  0.13762850  0.29269626     0.37700
C263        C  0.04373580  0.15629526  0.23084057     0.36130
C264        C  0.41736377  0.08941553  0.14058874     0.36130
N265        N  0.06920647  0.17053092  0.24881778    -0.38690
N266        N  0.39208670  0.07620594  0.12127410    -0.38690
N267        N  0.48796086  0.14328886  0.33594495    -0.38140
N268        N  0.47447405  0.09587382  0.03965728    -0.38140
C269        C  0.20932381  0.23488768  0.04913870    -0.04810
C270        C  0.22750372  0.23844832  0.09518129    -0.01920
C271        C  0.26070760  0.26053635  0.09849165     0.03070
C272        C  0.27541211  0.28116101  0.05736805    -0.04800
C273        C  0.25598823  0.27899063  0.01359109    -0.01910
C274        C  0.22547474  0.25403228  0.00704400     0.03060
C275        C  0.21304106  0.21826658  0.13849064     0.37710
C276        C  0.26693817  0.30320139  0.97551715     0.37700
C277        C  0.21271856  0.24729228  0.95548099     0.36130
C278        C  0.27947890  0.26148667  0.14421528     0.36130
N279        N  0.20364503  0.24176144  0.91378276    -0.38690
N280        N  0.29433333  0.26207974  0.18077714    -0.38690
N281        N  0.27669898  0.32331876  0.94670481    -0.38140
N282        N  0.20165041  0.20223260  0.17316973    -0.38140
C283        C  0.50377387  0.23566628  0.96711676    -0.04810
C284        C  0.47964266  0.23191779  0.92938455    -0.01920
C285        C  0.47073655  0.25640935  0.91714040     0.03070
C286        C  0.48628160  0.28491544  0.94188987    -0.04800
C287        C  0.01359099  0.28995623  0.97324527    -0.01910
C288        C  0.02151690  0.26536856  0.98770274     0.03060
C289        C  0.46254029  0.20239500  0.90528648     0.37710
C290        C  0.03309328  0.32071585  0.99151930     0.37700
C291        C  0.04786145  0.27155059  0.02424094     0.36130
C292        C  0.44458390  0.25186310  0.88077877     0.36130
N293        N  0.06905920  0.27853480  0.05362255    -0.38690
N294        N  0.42398579  0.24838023  0.85130104    -0.38690
N295        N  0.04870739  0.34523181  0.00587679    -0.38140
N296        N  0.44888215  0.17885302  0.88601046    -0.38140
C297        C  0.09489200  0.25597815  0.15713007    -0.04810
C298        C  0.12651118  0.28005871  0.16176084    -0.01920
C299        C  0.13074316  0.30576985  0.19195517     0.03070
C300        C  0.10326403  0.30770283  0.21729720    -0.04800
C301        C  0.07154594  0.28363519  0.21216222    -0.01910
C302        C  0.06745861  0.25766631  0.18276079     0.03060
C303        C  0.15455278  0.27898706  0.13383864     0.37710
C304        C  0.04276618  0.28668513  0.23400921     0.37700
C305        C  0.03505932  0.23256779  0.17917830     0.36130
C306        C  0.16346469  0.33021687  0.19676788     0.36130
N307        N  0.00926702  0.21249723  0.17649349    -0.38690
N308        N  0.18958114  0.34970669  0.20034108    -0.38690
N309        N  0.02024172  0.29000192  0.25115898    -0.38140
N310        N  0.17702420  0.27842672  0.11152093    -0.38140
C311        C  0.12747407  0.12382179  0.80017475    -0.04810
C312        C  0.12130766  0.11498509  0.85239507    -0.01920
C313        C  0.10571224  0.12897431  0.88499712     0.03070
C314        C  0.09584568  0.15164080  0.86584267    -0.04800
C315        C  0.09636672  0.15595258  0.81220890    -0.01910
C316        C  0.11170178  0.14185961  0.77955828     0.03060
C317        C  0.13177421  0.09232882  0.87343198     0.37710
C318        C  0.08256661  0.17594795  0.79023838     0.37700
C319        C  0.11166782  0.14644436  0.72457530     0.36130
C320        C  0.09985854  0.12008068  0.93848268     0.36130
N321        N  0.11159597  0.15011435  0.68077002    -0.38690
N322        N  0.09492333  0.11262947  0.98099099    -0.38690
N323        N  0.07112300  0.19134879  0.77180332    -0.38140
N324        N  0.13974218  0.07399710  0.89030713    -0.38140
C325        C  0.36753375  0.03512427  0.47011090    -0.04810
C326        C  0.33758796  0.02509080  0.49790818    -0.01920
C327        C  0.32432061  0.49603140  0.52065058     0.03070
C328        C  0.34309285  0.47808605  0.52297152    -0.04800
C329        C  0.37383966  0.48839155  0.49667607    -0.01910
C330        C  0.38563782  0.01657558  0.46911718     0.03060
C331        C  0.32127472  0.04546955  0.50721787     0.37710
C332        C  0.39343679  0.47043141  0.49863350     0.37700
C333        C  0.41639962  0.02665314  0.44034864     0.36130
C334        C  0.29052436  0.48445633  0.54033518     0.36130
N335        N  0.44099210  0.03474785  0.41735400    -0.38690
N336        N  0.26346602  0.47572499  0.55502662    -0.38690
N337        N  0.40911944  0.45608577  0.50024236    -0.38140
N338        N  0.30790632  0.06099183  0.51811644    -0.38140
C339        C  0.25395335  0.48774322  0.71772438    -0.04810
C340        C  0.26384100  0.01190947  0.75354927    -0.01920
C341        C  0.24555412  0.03014776  0.75872674     0.03070
C342        C  0.21783778  0.02470761  0.72742876    -0.04800
C343        C  0.20612286  0.49892231  0.69562761    -0.01910
C344        C  0.22391595  0.48048171  0.69085884     0.03060
C345        C  0.29373795  0.01921438  0.78293798     0.37710
C346        C  0.17554394  0.49140864  0.66765293     0.37700
C347        C  0.21064613  0.45391594  0.65817267     0.36130
C348        C  0.25595689  0.05518951  0.79489176     0.36130
N349        N  0.19926776  0.43304121  0.63152207    -0.38690
N350        N  0.26397488  0.07486451  0.82436899    -0.38690
N351        N  0.15109660  0.48527661  0.64561462    -0.38140
N352        N  0.31762985  0.02513145  0.80637250    -0.38140
C353        C  0.25785558  0.28845188  0.62249400    -0.04810
C354        C  0.26023948  0.27175247  0.57881664    -0.01920
C355        C  0.24088794  0.23967242  0.57587722     0.03070
C356        C  0.21610857  0.22474910  0.61347306    -0.04800
C357        C  0.21154970  0.24252417  0.65336121    -0.01910
C358        C  0.23525896  0.27220229  0.66182329     0.03060
C359        C  0.28460679  0.28678408  0.53915837     0.37710
C360        C  0.18209607  0.23063390  0.68568574     0.37700
C361        C  0.23910053  0.28325523  0.71385159     0.36130
C362        C  0.24754152  0.22218409  0.53531870     0.36130
N363        N  0.24291464  0.29060549  0.75628810    -0.38690
N364        N  0.25307428  0.20826368  0.50309272    -0.38690
N365        N  0.15835270  0.22152088  0.71083784    -0.38140
N366        N  0.30412974  0.29869946  0.50753540    -0.38140
C367        C  0.34540742  0.39281746  0.80181847    -0.04810
C368        C  0.34866507  0.39886415  0.85509270    -0.01920
C369        C  0.36481899  0.38502722  0.88646072     0.03070
C370        C  0.37825913  0.36525754  0.86505285    -0.04800
C371        C  0.37932174  0.36304748  0.81100314    -0.01910
C372        C  0.36350876  0.37712209  0.77971111     0.03060
C373        C  0.33423331  0.41814883  0.87848521     0.37710
C374        C  0.39407377  0.34409200  0.78712378     0.37700
C375        C  0.36518223  0.37453800  0.72443300     0.36130
C376        C  0.36673193  0.39049232  0.94122332     0.36130
N377        N  0.36664422  0.37229859  0.68044412    -0.38690
N378        N  0.36819954  0.39487817  0.98489658    -0.38690
N379        N  0.40568565  0.32892019  0.76789064    -0.38140
N380        N  0.32299339  0.43372794  0.89731092    -0.38140
C381        C  0.15904171  0.28134651  0.87206957    -0.04810
C382        C  0.15390518  0.28364106  0.81887788    -0.01920
C383        C  0.17894238  0.30468235  0.78800203     0.03070
C384        C  0.20731767  0.32713951  0.81056579    -0.04800
C385        C  0.21043754  0.32758960  0.86459385    -0.01910
C386        C  0.18694982  0.30439095  0.89499862     0.03060
C387        C  0.12177675  0.26733360  0.79578345     0.37710
C388        C  0.23725382  0.35232699  0.88954018     0.37700
C389        C  0.19001507  0.30623604  0.95036465     0.36130
C390        C  0.17441386  0.30334509  0.73286790     0.36130
N391        N  0.19243277  0.30793479  0.99446695    -0.38690
N392        N  0.17045535  0.30114712  0.68907227    -0.38690
N393        N  0.25820952  0.37236652  0.90957364    -0.38140
N394        N  0.09605389  0.25613308  0.77694673    -0.38140
C395        C  0.16347174  0.39061511  0.47202999    -0.04810
C396        C  0.15882513  0.37910644  0.52307862    -0.01920
C397        C  0.18613933  0.38016178  0.55203242     0.03070
C398        C  0.21837890  0.39339170  0.53121301    -0.04800
C399        C  0.22308133  0.40372258  0.48006289    -0.01910
C400        C  0.19586453  0.40181887  0.45036222     0.03060
C401        C  0.12631375  0.36709020  0.54716354     0.37710
C402        C  0.25629874  0.41734517  0.45825330     0.37700
C403        C  0.20177704  0.41128052  0.39720957     0.36130
C404        C  0.18111078  0.36803615  0.60376534     0.36130
N405        N  0.20725042  0.41895697  0.35492425    -0.38690
N406        N  0.17701470  0.35894710  0.64541036    -0.38690
N407        N  0.28271336  0.42828056  0.44081442    -0.38140
N408        N  0.10044795  0.35740829  0.56660591    -0.38140
O409        O  0.28212755  0.83910739  0.58501792    -0.80360
O410        O  0.27536914  0.96018012  0.66330664    -0.65050
O411        O  0.30396389  0.89621042  0.63857623    -1.11650
C412        C  0.23173443  0.85163485  0.77813660     1.06530
O413        O  0.28674989  0.96055611  0.74469103    -0.78260
O414        O  0.30929912  0.91830759  0.78161411    -0.65840
Ni415      Ni  0.30553440  0.88267970  0.56893209     1.34870
C416        C  0.31871226  0.89701418  0.77133995     0.85260
O417        O  0.31993107  0.95522987  0.60054790    -0.78800
O418        O  0.32826137  0.92450576  0.54256933    -0.89070
C419        C  0.27382348  0.96936688  0.70822921     0.84840
O420        O  0.26448635  0.88214122  0.54706304    -0.67270
O421        O  0.24414731  0.87866274  0.79624993    -0.86560
C422        C  0.24752934  0.89653011  0.56210127     0.85670
C423        C  0.33059212  0.95078951  0.55755528     1.07240
H424        H  0.23900290  0.89829097  0.69012755     0.39040
O425        O  0.26165191  0.90333043  0.69980610    -1.09220
O426        O  0.30454288  0.87702237  0.73750142    -0.65870
Ni427      Ni  0.27154033  0.86938687  0.68590572     1.26350
O428        O  0.25514199  0.91451559  0.60036184    -0.66100
O429        O  0.23864719  0.84488665  0.73352059    -0.78390
C430        C  0.27552550  0.82280252  0.62569213     0.85050
O431        O  0.28083812  0.83510848  0.66934886    -0.65570
Ni432      Ni  0.26666271  0.91894730  0.76822708     1.27450
Ni433      Ni  0.29062505  0.92912800  0.64957391     1.26060
H434        H  0.32582222  0.90219261  0.65262119     0.39590
O435        O  0.15555992  0.70704409  0.08774403    -0.80360
O436        O  0.02019683  0.70649461  0.02688244    -0.65050
O437        O  0.09295262  0.68264841  0.03796276    -1.11650
C438        C  0.13453279  0.75613113  0.90367205     1.06530
O439        O  0.02111004  0.69559084  0.94669870    -0.78260
O440        O  0.06772183  0.68296324  0.89373599    -0.65840
Ni441      Ni  0.11014961  0.67924977  0.10408203     1.34870
C442        C  0.09079095  0.67403797  0.90154602     0.85260
O443        O  0.03018488  0.66480173  0.08530219    -0.78800
O444        O  0.06645922  0.65178952  0.12837146    -0.89070
C445        C  0.51259455  0.70960450  0.98125950     0.84840
O446        O  0.10551307  0.71286540  0.13674633    -0.67270
O447        O  0.10464600  0.74486694  0.88860621    -0.86560
C448        C  0.09046381  0.72941709  0.12450053     0.85670
C449        C  0.03720786  0.65003858  0.12038226     1.07240
H450        H  0.08734293  0.74242127  0.99561185     0.39040
O451        O  0.08184432  0.72181094  0.98373384    -1.09220
O452        O  0.11177535  0.68499978  0.93703732    -0.65870
Ni453      Ni  0.11997871  0.71442218  0.99124196     1.26350
O454        O  0.07200129  0.72458403  0.08562691    -0.66100
O455        O  0.14414165  0.74688584  0.94402030    -0.78390
C456        C  0.17279111  0.71461086  0.04662059     0.85050
O457        O  0.15885875  0.70787570  0.00356678    -0.65570
Ni458      Ni  0.06300564  0.71914512  0.91767945     1.27450
Ni459      Ni  0.05561139  0.69330692  0.03460369     1.26060
H460        H  0.08671484  0.66304129  0.02158180     0.39590
O461        O  0.19513341  0.67304302  0.58020416    -0.80360
O462        O  0.20796290  0.55961538  0.67434589    -0.65050
O463        O  0.17399584  0.61838124  0.64101630    -1.11650
C464        C  0.24010463  0.66925096  0.77901654     1.06530
O465        O  0.19393142  0.55897475  0.75616345    -0.78260
O466        O  0.16411145  0.59862917  0.78077014    -0.65840
Ni467      Ni  0.17092245  0.62899541  0.57043152     1.34870
C468        C  0.15483854  0.61992284  0.77019549     0.85260
O469        O  0.16451112  0.55980751  0.60619544    -0.78800
O470        O  0.14717554  0.58610999  0.55137591    -0.89070
C471        C  0.20576637  0.54897893  0.71927441     0.84840
O472        O  0.21099663  0.62801961  0.54588372    -0.67270
O473        O  0.22620985  0.64289593  0.79992180    -0.86560
C474        C  0.23126793  0.61826967  0.56447037     0.85670
C475        C  0.14948105  0.56146908  0.56598761     1.07240
H476        H  0.23953310  0.62170363  0.69785931     0.39040
O477        O  0.21630440  0.61570271  0.70552641    -1.09220
O478        O  0.17018330  0.64041374  0.73710966    -0.65870
Ni479      Ni  0.20446779  0.64776878  0.68637325     1.26350
O480        O  0.22709385  0.60451361  0.60750901    -0.66100
O481        O  0.23560325  0.67506825  0.73269006    -0.78390
C482        C  0.19998401  0.69058396  0.61885044     0.85050
O483        O  0.19353545  0.67982285  0.66376379    -0.65570
Ni484      Ni  0.20882067  0.60160562  0.77483140     1.27450
Ni485      Ni  0.19046182  0.58808737  0.65566970     1.26060
H486        H  0.15193462  0.61134118  0.65542039     0.39590
O487        O  0.42793861  0.67514670  0.42592452    -0.80360
O488        O  0.31543647  0.56278834  0.33114808    -0.65050
O489        O  0.40133761  0.62063952  0.36559471    -1.11650
C490        C  0.38733658  0.67357886  0.22449623     1.06530
O491        O  0.32542854  0.56379637  0.24747326    -0.78260
O492        O  0.39254484  0.59771688  0.23272072    -0.65840
Ni493      Ni  0.41282344  0.63097491  0.43603525     1.34870
C494        C  0.42134973  0.61784655  0.24193323     0.85260
O495        O  0.35888634  0.56185014  0.40026528    -0.78800
O496        O  0.40022007  0.58820236  0.45369016    -0.89070
C497        C  0.30629512  0.55360381  0.28613678     0.84840
O498        O  0.37073923  0.62861991  0.46063882    -0.67270
O499        O  0.37856709  0.64706861  0.20468315    -0.86560
C500        C  0.34207026  0.61916530  0.44107707     0.85430
C501        C  0.37694612  0.56342476  0.43874637     1.07240
H502        H  0.34000649  0.62572698  0.30749769     0.39040
O503        O  0.35763746  0.61924377  0.30014157    -1.09220
O504        O  0.42568663  0.64093914  0.27008311    -0.65870
Ni505      Ni  0.39836192  0.65057977  0.31948041     1.26350
O506        O  0.33592773  0.60698916  0.39698098    -0.66100
O507        O  0.39278521  0.67832471  0.27222143    -0.78390
C508        C  0.44256565  0.69227008  0.38790468     0.85050
O509        O  0.43830484  0.68241154  0.34232987    -0.65570
Ni510      Ni  0.35362400  0.60596938  0.23052574     1.27450
Ni511      Ni  0.35829579  0.59072199  0.35004817     1.26060
H512        H  0.41712772  0.61319621  0.35229219     0.39590
O513        O  0.04178231  0.83826458  0.43080271    -0.80360
O514        O  0.16191062  0.95476506  0.33657958    -0.65050
O515        O  0.07687462  0.89203160  0.37031122    -1.11650
C516        C  0.10700139  0.83572010  0.24590415     1.06530
O517        O  0.15584772  0.94740593  0.25310989    -0.78260
O518        O  0.09694092  0.90478565  0.22166572    -0.65840
Ni519      Ni  0.06693332  0.88206330  0.44189166     1.34870
C520        C  0.06760918  0.88732226  0.23483033     0.85260
O521        O  0.11181326  0.95380500  0.39524970    -0.78800
O522        O  0.08912525  0.92461159  0.46384718    -0.89070
C523        C  0.17272157  0.96160172  0.29112927     0.84840
O524        O  0.10587751  0.87486993  0.45275773    -0.67270
O525        O  0.12286927  0.86151229  0.22432238    -0.86560
C526        C  0.13550587  0.89320913  0.44291843     0.85670
C527        C  0.10339486  0.95073344  0.44212241     1.07240
H528        H  0.14276864  0.88887211  0.32841308     0.39040
O529        O  0.12583603  0.89413120  0.31358403    -1.09220
O530        O  0.06061914  0.86976497  0.27375990    -0.65870
Ni531      Ni  0.08431670  0.86191412  0.32963402     1.26350
O532        O  0.14230725  0.91480294  0.41028432    -0.66100
O533        O  0.09318580  0.83275065  0.28962768    -0.78390
C534        C  0.03204643  0.82092097  0.39183472     0.85050
O535        O  0.04312076  0.82975304  0.34725685    -0.65570
Ni536      Ni  0.13785110  0.90391056  0.24272127     1.27450
Ni537      Ni  0.11929329  0.92419613  0.35452095     1.26060
H538        H  0.05962623  0.89698261  0.35575029     0.39590
O539        O  0.33062028  0.80639997  0.09344527    -0.80360
O540        O  0.46068521  0.80809969  0.99554641    -0.65050
O541        O  0.39052884  0.83067264  0.03243672    -1.11650
C542        C  0.33665123  0.76334879  0.89871382     1.06530
O543        O  0.45585004  0.81387837  0.91307800    -0.78260
O544        O  0.40867234  0.83499370  0.88635033    -0.65840
Ni545      Ni  0.37810169  0.82964620  0.10431648     1.34870
C546        C  0.38540238  0.84304121  0.89836461     0.85260
O547        O  0.45634648  0.84858557  0.06068314    -0.78800
O548        O  0.42403887  0.85102782  0.12570176    -0.89070
C549        C  0.46779175  0.80440147  0.94986399     0.84840
O550        O  0.37998096  0.79203116  0.12214043    -0.67270
O551        O  0.36461394  0.77531042  0.87602091    -0.86560
C552        C  0.39744903  0.77881709  0.10458894     0.85670
C553        C  0.45237473  0.85551524  0.10637137     1.07240
H554        H  0.39231674  0.77139272  0.97921664     0.39040
O555        O  0.39676066  0.79207052  0.96862434    -1.09220
O556        O  0.36561458  0.83078343  0.93554244    -0.65870
Ni557      Ni  0.36026439  0.80062646  0.98803062     1.26350
O558        O  0.41597511  0.78788023  0.06512921    -0.66100
O559        O  0.33112169  0.76964972  0.94427570    -0.78390
C560        C  0.31208926  0.80073885  0.05430728     0.85050
O561        O  0.32463873  0.80907292  0.01051991    -0.65570
Ni562      Ni  0.40957295  0.79564364  0.89767174     1.27450
Ni563      Ni  0.42667769  0.82031936  0.01493912     1.26060
H564        H  0.39525070  0.85092692  0.01934257     0.39590
C565        C  0.04037458  0.88356917  0.19935608    -0.04810
C566        C  0.03486657  0.86263295  0.15911999    -0.01920
C567        C  0.00496422  0.85203637  0.13260105     0.03070
C568        C  0.48257915  0.86629995  0.13896452    -0.04800
C569        C  0.48901696  0.88880377  0.17745444    -0.01910
C570        C  0.01728609  0.89651794  0.20894921     0.03060
C571        C  0.05950153  0.85094914  0.14552758     0.37710
C572        C  0.46642887  0.90346421  0.18546462     0.37700
C573        C  0.52269208  0.91765628  0.25107500     0.36130
C574        C  0.99518798  0.82303199  0.10607511     0.36130
N575        N  0.52703326  0.93448397  0.28482860    -0.38690
N576        N  0.98762167  0.79910164  0.08792425    -0.38690
N577        N  0.44838426  0.91518593  0.19192105    -0.38140
N578        N  0.07884892  0.84171855  0.13279211    -0.38140
C579        C  0.39641333  0.75165404  0.13245000    -0.04810
C580        C  0.41692286  0.75521886  0.17513879    -0.01920
C581        C  0.41602912  0.72937588  0.20184305     0.03070
C582        C  0.39169991  0.70000805  0.19045253    -0.04800
C583        C  0.37040959  0.69658842  0.14828104    -0.01910
C584        C  0.37349087  0.72229515  0.11857713     0.03060
C585        C  0.43729051  0.78541821  0.19434624     0.37710
C586        C  0.34425154  0.66707449  0.13654700     0.37700
C587        C  0.35194520  0.71884057  0.07520763     0.36130
C588        C  0.44101181  0.73300161  0.23987225     0.36130
N589        N  0.33478928  0.71622211  0.04066992    -0.38690
N590        N  0.46106185  0.73540412  0.26972021    -0.38690
N591        N  0.32327884  0.64359645  0.12716238    -0.38140
N592        N  0.45301081  0.80905223  0.21185776    -0.38140
C593        C  0.00804143  0.78839495  0.39824864    -0.04810
C594        C  0.01974153  0.76563993  0.40973023    -0.01920
C595        C  0.99803059  0.73423987  0.40871140     0.03070
C596        C  0.46438059  0.72524476  0.39620594    -0.04800
C597        C  0.45240050  0.74804706  0.38668773    -0.01910
C598        C  0.47418210  0.77944786  0.38726815     0.03060
C599        C  0.05455598  0.77454889  0.42042130     0.37710
C600        C  0.41776104  0.73909072  0.37470774     0.37700
C601        C  0.46198155  0.80257139  0.37508944     0.36130
C602        C  0.01059551  0.71111020  0.41877764     0.36130
N603        N  0.45229696  0.82106191  0.36529695    -0.38690
N604        N  0.02068500  0.69269420  0.42686857    -0.38690
N605        N  0.39011842  0.73188581  0.36508649    -0.38140
N606        N  0.08236357  0.78173768  0.42880049    -0.38140
C607        C  0.20611043  0.98610677  0.28225780    -0.04810
C608        C  0.21270129  0.51677125  0.29392876    -0.01920
C609        C  0.24536368  0.53928752  0.29043620     0.03070
C610        C  0.27187668  0.53084564  0.27915086    -0.04800
C611        C  0.26511881  0.00055736  0.26460621    -0.01910
C612        C  0.23213565  0.97842185  0.26456531     0.03060
C613        C  0.18586372  0.52513934  0.30916675     0.37710
C614        C  0.29213770  0.99192619  0.25177701     0.37700
C615        C  0.22513996  0.94752983  0.24769003     0.36130
C616        C  0.25177318  0.57125359  0.29824173     0.36130
N617        N  0.21956140  0.92291821  0.23402314    -0.38690
N618        N  0.25694980  0.59676520  0.30428689    -0.38690
N619        N  0.31372489  0.98502309  0.24176246    -0.38140
N620        N  0.16443336  0.53180091  0.32131833    -0.38140
C621        C  0.13662863  0.53327756  0.53352218    -0.04810
C622        C  0.15721324  0.51732677  0.52463502    -0.01920
C623        C  0.14610078  0.99063885  0.49466544     0.03070
C624        C  0.11404906  0.97884215  0.47391833    -0.04800
C625        C  0.09338008  0.99451826  0.48234788    -0.01910
C626        C  0.10468665  0.52178011  0.51178134     0.03060
C627        C  0.19062455  0.52869553  0.54483306     0.37710
C628        C  0.06055658  0.98261369  0.46052140     0.37700
C629        C  0.08307515  0.53735970  0.52094242     0.36130
C630        C  0.16832961  0.97572443  0.48452679     0.36130
N631        N  0.06577730  0.54977142  0.52827946    -0.38690
N632        N  0.18690749  0.96472002  0.47699430    -0.38690
N633        N  0.03434783  0.97307606  0.44306009    -0.38140
N634        N  0.21722962  0.53739982  0.56070116    -0.38140
C635        C  0.25988398  0.62105484  0.53186828    -0.04810
C636        C  0.25409838  0.60386369  0.48658426    -0.01920
C637        C  0.28061311  0.60150361  0.45983796     0.03070
C638        C  0.31388220  0.62122952  0.47145588    -0.04800
C639        C  0.31942501  0.64129308  0.51404427    -0.01910
C640        C  0.29257401  0.63992748  0.54554401     0.03060
C641        C  0.22066589  0.58792564  0.46751987     0.37710
C642        C  0.35246075  0.66331582  0.52612765     0.37700
C643        C  0.29837517  0.65866725  0.59110665     0.36130
C644        C  0.27283360  0.57497891  0.42733032     0.36130
N645        N  0.30285606  0.67355446  0.62751850    -0.38690
N646        N  0.26547914  0.55245284  0.40464340    -0.38690
N647        N  0.37876332  0.68100519  0.53586945    -0.38140
N648        N  0.19431652  0.57570202  0.45110133    -0.38140
C649        C  0.31033838  0.73912321  0.87091650    -0.04810
C650        C  0.31352667  0.71132026  0.86264539    -0.01920
C651        C  0.29125232  0.68916789  0.83057735     0.03070
C652        C  0.26396847  0.69354867  0.81041563    -0.04800
C653        C  0.25973156  0.72060040  0.82109361    -0.01910
C654        C  0.28399968  0.74416066  0.84892528     0.03060
C655        C  0.33994788  0.70558416  0.88686693     0.37710
C656        C  0.22956638  0.72327105  0.80627558     0.37700
C657        C  0.28341943  0.77416670  0.85120427     0.36130
C658        C  0.29736987  0.66253650  0.81651455     0.36130
N659        N  0.28360225  0.79841707  0.85117458    -0.38690
N660        N  0.30274408  0.64165818  0.80479057    -0.38690
N661        N  0.20488540  0.72477876  0.79602183    -0.38140
N662        N  0.36076711  0.70084028  0.90650575    -0.38140
C663        C  0.00945329  0.63187550  0.15547445    -0.04810
C664        C  0.47828005  0.61348361  0.13482440    -0.01920
C665        C  0.44914647  0.60595917  0.16451983     0.03070
C666        C  0.45108008  0.61654742  0.21566683    -0.04800
C667        C  0.48271408  0.63052287  0.23846186    -0.01910
C668        C  0.01175530  0.63856230  0.20832619     0.03060
C669        C  0.47613971  0.60368293  0.08186883     0.37710
C670        C  0.48556056  0.63762852  0.29269630     0.37700
C671        C  0.04373573  0.65629486  0.23084057     0.36130
C672        C  0.41736378  0.58941551  0.14058879     0.36130
N673        N  0.06920640  0.67053037  0.24881787    -0.38690
N674        N  0.39208672  0.57620592  0.12127415    -0.38690
N675        N  0.48796086  0.64328889  0.33594499    -0.38140
N676        N  0.47447407  0.59587380  0.03965734    -0.38140
C677        C  0.20932380  0.73488766  0.04913877    -0.04810
C678        C  0.22750370  0.73844834  0.09518138    -0.01920
C679        C  0.26070758  0.76053638  0.09849173     0.03070
C680        C  0.27541211  0.78116100  0.05736809    -0.04800
C681        C  0.25598824  0.77899057  0.01359109    -0.01910
C682        C  0.22547475  0.75403222  0.00704403     0.03060
C683        C  0.21304102  0.71826667  0.13849079     0.37710
C684        C  0.26693818  0.80320129  0.97551707     0.37700
C685        C  0.21271857  0.74729217  0.95548102     0.36130
C686        C  0.27947886  0.76148676  0.14421541     0.36130
N687        N  0.20364504  0.74176130  0.91378280    -0.38690
N688        N  0.29433327  0.76207987  0.18077732    -0.38690
N689        N  0.27669899  0.82331863  0.94670468    -0.38140
N690        N  0.20165035  0.70223272  0.17316993    -0.38140
C691        C  0.50377389  0.73566626  0.96711679    -0.04810
C692        C  0.47964264  0.73191774  0.92938464    -0.01920
C693        C  0.47073651  0.75640930  0.91714050     0.03070
C694        C  0.48628158  0.78491540  0.94188993    -0.04800
C695        C  0.01359103  0.78995631  0.97324536    -0.01910
C696        C  0.02151695  0.76536865  0.98770278     0.03060
C697        C  0.46254026  0.70239494  0.90528662     0.37710
C698        C  0.03309329  0.82071593  0.99151947     0.37700
C699        C  0.04786150  0.77155066  0.02424098     0.36130
C700        C  0.44458381  0.75186302  0.88077894     0.36130
N701        N  0.06905926  0.77853485  0.05362258    -0.38690
N702        N  0.42398567  0.74838012  0.85130127    -0.38690
N703        N  0.04870737  0.84523187  0.00587704    -0.38140
N704        N  0.44888209  0.67885295  0.88601064    -0.38140
C705        C  0.09489203  0.75597812  0.15713013    -0.04810
C706        C  0.12651119  0.78005874  0.16176070    -0.01920
C707        C  0.13074318  0.80576989  0.19195501     0.03070
C708        C  0.10326409  0.80770281  0.21729725    -0.04800
C709        C  0.07154602  0.78363510  0.21216249    -0.01910
C710        C  0.06745868  0.75766622  0.18276106     0.03060
C711        C  0.15455276  0.77898712  0.13383834     0.37710
C712        C  0.04276628  0.78668496  0.23400972     0.37700
C713        C  0.03505942  0.73256764  0.17917877     0.36130
C714        C  0.16346469  0.83021698  0.19676748     0.36130
N715        N  0.00926714  0.71249703  0.17649412    -0.38690
N716        N  0.18958111  0.84970686  0.20034048    -0.38690
N717        N  0.02024183  0.79000169  0.25115968    -0.38140
N718        N  0.17702414  0.77842680  0.11152051    -0.38140
C719        C  0.12747408  0.62382180  0.80017481    -0.04810
C720        C  0.12130775  0.61498514  0.85239516    -0.01920
C721        C  0.10571232  0.62897436  0.88499722     0.03070
C722        C  0.09584565  0.65164077  0.86584273    -0.04800
C723        C  0.09636659  0.65595247  0.81220894    -0.01910
C724        C  0.11170171  0.64185955  0.77955833     0.03060
C725        C  0.13177442  0.59232896  0.87343211     0.37710
C726        C  0.08256627  0.67594767  0.79023840     0.37700
C727        C  0.11166773  0.64644428  0.72457535     0.36130
C728        C  0.09985872  0.62008079  0.93848281     0.36130
N729        N  0.11159588  0.65011427  0.68077007    -0.38690
N730        N  0.09492360  0.61262962  0.98099115    -0.38690
N731        N  0.07112247  0.69134836  0.77180334    -0.38140
N732        N  0.13974248  0.57399732  0.89030730    -0.38140
C733        C  0.36753375  0.53512426  0.47011093    -0.04810
C734        C  0.33758796  0.52509078  0.49790822    -0.01920
C735        C  0.32432060  0.99603141  0.52065054     0.03070
C736        C  0.34309285  0.97808606  0.52297149    -0.04800
C737        C  0.37383966  0.98839156  0.49667604    -0.01910
C738        C  0.38563782  0.51657557  0.46911721     0.03060
C739        C  0.32127471  0.54546954  0.50721789     0.37710
C740        C  0.39343679  0.97043143  0.49863347     0.37700
C741        C  0.41639962  0.52665312  0.44034867     0.36130
C742        C  0.29052436  0.98445634  0.54033513     0.36130
N743        N  0.44099210  0.53474783  0.41735403    -0.38690
N744        N  0.26346602  0.97572500  0.55502658    -0.38690
N745        N  0.40911944  0.95608579  0.50024233    -0.38140
N746        N  0.30790631  0.56099181  0.51811644    -0.38140
C747        C  0.25395334  0.98774321  0.71772438    -0.04810
C748        C  0.26384098  0.51190947  0.75354931    -0.01920
C749        C  0.24555411  0.53014775  0.75872680     0.03070
C750        C  0.21783779  0.52470762  0.72742878    -0.04800
C751        C  0.20612285  0.99892228  0.69562763    -0.01910
C752        C  0.22391592  0.98048168  0.69085888     0.03060
C753        C  0.29373792  0.51921435  0.78293806     0.37710
C754        C  0.17554392  0.99140859  0.66765296     0.37700
C755        C  0.21064609  0.95391588  0.65817276     0.36130
C756        C  0.25595684  0.55518947  0.79489188     0.36130
N757        N  0.19926771  0.93304113  0.63152220    -0.38690
N758        N  0.26397481  0.57486444  0.82436916    -0.38690
N759        N  0.15109657  0.98527656  0.64561466    -0.38140
N760        N  0.31762980  0.52513141  0.80637262    -0.38140
C761        C  0.25785558  0.78845189  0.62249394    -0.04810
C762        C  0.26023944  0.77175248  0.57881655    -0.01920
C763        C  0.24088790  0.73967244  0.57587715     0.03070
C764        C  0.21610856  0.72474911  0.61347305    -0.04800
C765        C  0.21154973  0.74252420  0.65336122    -0.01910
C766        C  0.23525900  0.77220231  0.66182327     0.03060
C767        C  0.28460671  0.78678409  0.53915822     0.37710
C768        C  0.18209611  0.73063393  0.68568577     0.37700
C769        C  0.23910062  0.78325525  0.71385157     0.36130
C770        C  0.24754142  0.72218410  0.53531858     0.36130
N771        N  0.24291478  0.79060552  0.75628807    -0.38690
N772        N  0.25307414  0.70826369  0.50309256    -0.38690
N773        N  0.15835275  0.72152091  0.71083789    -0.38140
N774        N  0.30412962  0.79869947  0.50753520    -0.38140
C775        C  0.34540747  0.89281747  0.80181846    -0.04810
C776        C  0.34866510  0.89886416  0.85509269    -0.01920
C777        C  0.36481901  0.88502723  0.88646073     0.03070
C778        C  0.37825915  0.86525754  0.86505287    -0.04800
C779        C  0.37932178  0.86304748  0.81100316    -0.01910
C780        C  0.36350882  0.87712211  0.77971112     0.03060
C781        C  0.33423335  0.91814885  0.87848519     0.37710
C782        C  0.39407382  0.84409201  0.78712381     0.37700
C783        C  0.36518231  0.87453802  0.72443301     0.36130
C784        C  0.36673194  0.89049232  0.94122333     0.36130
N785        N  0.36664431  0.87229863  0.68044414    -0.38690
N786        N  0.36819954  0.89487817  0.98489659    -0.38690
N787        N  0.40568570  0.82892020  0.76789068    -0.38140
N788        N  0.32299343  0.93372797  0.89731089    -0.38140
C789        C  0.15904182  0.78134645  0.87206954    -0.04810
C790        C  0.15390532  0.78364095  0.81887782    -0.01920
C791        C  0.17894250  0.80468229  0.78800200     0.03070
C792        C  0.20731776  0.82713948  0.81056576    -0.04800
C793        C  0.21043763  0.82758957  0.86459382    -0.01910
C794        C  0.18694991  0.80439092  0.89499860     0.03060
C795        C  0.12177695  0.76733334  0.79578331     0.37710
C796        C  0.23725390  0.85232696  0.88954016     0.37700
C797        C  0.19001515  0.80623603  0.95036462     0.36130
C798        C  0.17441398  0.80334505  0.73286786     0.36130
N799        N  0.19243284  0.80793478  0.99446692    -0.38690
N800        N  0.17045548  0.80114710  0.68907223    -0.38690
N801        N  0.25820960  0.87236649  0.90957362    -0.38140
N802        N  0.09605413  0.75613270  0.77694650    -0.38140
C803        C  0.16347172  0.89061510  0.47202997    -0.04810
C804        C  0.15882512  0.87910643  0.52307859    -0.01920
C805        C  0.18613932  0.88016176  0.55203239     0.03070
C806        C  0.21837889  0.89339170  0.53121298    -0.04800
C807        C  0.22308132  0.90372259  0.48006287    -0.01910
C808        C  0.19586452  0.90181888  0.45036220     0.03060
C809        C  0.12631374  0.86709019  0.54716352     0.37710
C810        C  0.25629873  0.91734518  0.45825328     0.37700
C811        C  0.20177703  0.91128053  0.39720956     0.36130
C812        C  0.18111077  0.86803612  0.60376529     0.36130
N813        N  0.20725042  0.91895699  0.35492424    -0.38690
N814        N  0.17701469  0.85894704  0.64541030    -0.38690
N815        N  0.28271335  0.92828058  0.44081439    -0.38140
N816        N  0.10044794  0.85740828  0.56660589    -0.38140
O817        O  0.78212757  0.33910736  0.58501793    -0.80360
O818        O  0.77536919  0.46018014  0.66330660    -0.65050
O819        O  0.80396388  0.39621040  0.63857622    -1.11650
C820        C  0.73173437  0.35163487  0.77813656     1.06530
O821        O  0.78674992  0.46055611  0.74469100    -0.78260
O822        O  0.80929909  0.41830756  0.78161411    -0.65840
Ni823      Ni  0.80553439  0.38267967  0.56893208     1.34870
C824        C  0.81871221  0.39701415  0.77133995     0.85260
O825        O  0.81993113  0.45522987  0.60054791    -0.78800
O826        O  0.82826134  0.42450573  0.54256929    -0.89070
C827        C  0.77382353  0.46936690  0.70822918     0.84840
O828        O  0.76448633  0.38214117  0.54706307    -0.67270
O829        O  0.74414727  0.37866275  0.79624989    -0.86560
C830        C  0.74752934  0.39653011  0.56210127     0.85670
C831        C  0.83059213  0.45078949  0.55755526     1.07240
H832        H  0.73900290  0.39829100  0.69012750     0.39040
O833        O  0.76165191  0.40333044  0.69980606    -1.09220
O834        O  0.80454283  0.37702234  0.73750141    -0.65870
Ni835      Ni  0.77154030  0.36938687  0.68590570     1.26350
O836        O  0.75514203  0.41451562  0.60036179    -0.66100
O837        O  0.73864713  0.34488665  0.73352055    -0.78390
C838        C  0.77552549  0.32280251  0.62569215     0.85050
O839        O  0.78083807  0.33510846  0.66934887    -0.65570
Ni840      Ni  0.76666270  0.41894730  0.76822704     1.27450
Ni841      Ni  0.79062508  0.42912800  0.64957389     1.26060
H842        H  0.82582221  0.40219258  0.65262119     0.39590
O843        O  0.65555992  0.20704413  0.08774397    -0.80360
O844        O  0.52019677  0.20649457  0.02688244    -0.65050
O845        O  0.59295261  0.18264843  0.03796274    -1.11650
C846        C  0.63453271  0.25613118  0.90367203     1.06530
O847        O  0.52110999  0.19559079  0.94669870    -0.78260
O848        O  0.56772180  0.18296324  0.89373597    -0.65840
Ni849      Ni  0.61014962  0.17924981  0.10408200     1.34870
C850        C  0.59079094  0.17403800  0.90154599     0.85260
O851        O  0.53018486  0.16480170  0.08530218    -0.78800
O852        O  0.56645925  0.15178955  0.12837147    -0.89070
C853        C  0.01259450  0.20960447  0.98125950     0.84840
O854        O  0.60551308  0.21286544  0.13674628    -0.67270
O855        O  0.60464592  0.24486694  0.88860617    -0.86560
C856        C  0.59046379  0.22941711  0.12450049     0.85670
C857        C  0.53720787  0.15003859  0.12038228     1.07240
H858        H  0.58734285  0.24242126  0.99561183     0.39040
O859        O  0.58184426  0.22181094  0.98373382    -1.09220
O860        O  0.61177534  0.18499982  0.93703728    -0.65870
Ni861      Ni  0.61997868  0.21442221  0.99124193     1.26350
O862        O  0.57200124  0.22458402  0.08562690    -0.66100
O863        O  0.64414159  0.24688589  0.94402027    -0.78390
C864        C  0.67279111  0.21461092  0.04662053     0.85050
O865        O  0.65885875  0.20787578  0.00356672    -0.65570
Ni866      Ni  0.56300558  0.21914510  0.91767943     1.27450
Ni867      Ni  0.55561135  0.19330690  0.03460367     1.26060
H868        H  0.58671486  0.16304131  0.02158177     0.39590
O869        O  0.69513339  0.17304300  0.58020413    -0.80360
O870        O  0.70796286  0.05961536  0.67434587    -0.65050
O871        O  0.67399582  0.11838122  0.64101626    -1.11650
C872        C  0.74010460  0.16925095  0.77901651     1.06530
O873        O  0.69393138  0.05897473  0.75616343    -0.78260
O874        O  0.66411141  0.09862916  0.78077014    -0.65840
Ni875      Ni  0.67092243  0.12899539  0.57043149     1.34870
C876        C  0.65483851  0.11992282  0.77019545     0.85260
O877        O  0.66451109  0.05980749  0.60619541    -0.78800
O878        O  0.64717552  0.08610998  0.55137587    -0.89070
C879        C  0.70576634  0.04897892  0.71927440     0.84840
O880        O  0.71099661  0.12801960  0.54588369    -0.67270
O881        O  0.72620982  0.14289592  0.79992177    -0.86560
C882        C  0.73126790  0.11826965  0.56447034     0.85670
C883        C  0.64948103  0.06146906  0.56598758     1.07240
H884        H  0.73953307  0.12170361  0.69785929     0.39040
O885        O  0.71630436  0.11570269  0.70552638    -1.09220
O886        O  0.67018328  0.14041372  0.73710962    -0.65870
Ni887      Ni  0.70446776  0.14776876  0.68637322     1.26350
O888        O  0.72709382  0.10451359  0.60750898    -0.66100
O889        O  0.73560322  0.17506823  0.73269003    -0.78390
C890        C  0.69998399  0.19058394  0.61885042     0.85050
O891        O  0.69353542  0.17982282  0.66376376    -0.65570
Ni892      Ni  0.70882063  0.10160560  0.77483138     1.27450
Ni893      Ni  0.69046179  0.08808735  0.65566967     1.26060
H894        H  0.65193459  0.11134116  0.65542035     0.39590
O895        O  0.92793861  0.17514672  0.42592452    -0.80360
O896        O  0.81543648  0.06278834  0.33114809    -0.65050
O897        O  0.90133761  0.12063954  0.36559472    -1.11650
C898        C  0.88733658  0.17357884  0.22449620     1.06530
O899        O  0.82542857  0.06379635  0.24747328    -0.78260
O900        O  0.89254487  0.09771688  0.23272075    -0.65840
Ni901      Ni  0.91282344  0.13097493  0.43603525     1.34870
C902        C  0.92134975  0.11784656  0.24193327     0.85260
O903        O  0.85888635  0.06185016  0.40026530    -0.78800
O904        O  0.90022008  0.08820238  0.45369018    -0.89070
C905        C  0.80629514  0.05360380  0.28613679     0.84840
O906        O  0.87073923  0.12861993  0.46063882    -0.67270
O907        O  0.87856710  0.14706860  0.20468313    -0.86560
C908        C  0.84207026  0.11916531  0.44107707     0.85430
C909        C  0.87694613  0.06342478  0.43874639     1.07240
H910        H  0.84000649  0.12572697  0.30749767     0.39040
O911        O  0.85763746  0.11924376  0.30014156    -1.09220
O912        O  0.92568663  0.14093916  0.27008312    -0.65870
Ni913      Ni  0.89836191  0.15057978  0.31948040     1.26350
O914        O  0.83592773  0.10698917  0.39698097    -0.66100
O915        O  0.89278520  0.17832471  0.27222140    -0.78390
C916        C  0.94256563  0.19227010  0.38790467     0.85050
O917        O  0.93830482  0.18241156  0.34232986    -0.65570
Ni918      Ni  0.85362402  0.10596936  0.23052574     1.27450
Ni919      Ni  0.85829580  0.09072199  0.35004817     1.26060
H920        H  0.91712772  0.11319623  0.35229220     0.39590
O921        O  0.54178232  0.33826459  0.43080273    -0.80360
O922        O  0.66191061  0.45476507  0.33657959    -0.65050
O923        O  0.57687461  0.39203162  0.37031125    -1.11650
C924        C  0.60700136  0.33572011  0.24590414     1.06530
O925        O  0.65584768  0.44740594  0.25310991    -0.78260
O926        O  0.59694092  0.40478563  0.22166566    -0.65840
Ni927      Ni  0.56693333  0.38206331  0.44189169     1.34870
C928        C  0.56760917  0.38732229  0.23483030     0.85260
O929        O  0.61181328  0.45380502  0.39524974    -0.78800
O930        O  0.58912525  0.42461160  0.46384722    -0.89070
C931        C  0.67272155  0.46160173  0.29112928     0.84840
O932        O  0.60587752  0.37486995  0.45275774    -0.67270
O933        O  0.62286930  0.36151231  0.22432241    -0.86560
C934        C  0.63550588  0.39320914  0.44291844     0.85670
C935        C  0.60339487  0.45073345  0.44212245     1.07240
H936        H  0.64276860  0.38887210  0.32841309     0.39040
O937        O  0.62583601  0.39413121  0.31358404    -1.09220
O938        O  0.56061911  0.36976502  0.27375992    -0.65870
Ni939      Ni  0.58431666  0.36191414  0.32963401     1.26350
O940        O  0.64230725  0.41480294  0.41028433    -0.66100
O941        O  0.59318572  0.33275066  0.28962764    -0.78390
C942        C  0.53204640  0.32092100  0.39183472     0.85050
O943        O  0.54312070  0.32975308  0.34725684    -0.65570
Ni944      Ni  0.63785110  0.40391057  0.24272129     1.27450
Ni945      Ni  0.61929329  0.42419615  0.35452097     1.26060
H946        H  0.55962622  0.39698264  0.35575035     0.39590
O947        O  0.83062028  0.30639997  0.09344527    -0.80360
O948        O  0.96068522  0.30809969  0.99554636    -0.65050
O949        O  0.89052883  0.33067261  0.03243669    -1.11650
C950        C  0.83665121  0.26334875  0.89871383     1.06530
O951        O  0.95585003  0.31387834  0.91307795    -0.78260
O952        O  0.90867231  0.33499366  0.88635030    -0.65840
Ni953      Ni  0.87810169  0.32964618  0.10431646     1.34870
C954        C  0.88540234  0.34304116  0.89836459     0.85260
O955        O  0.95634648  0.34858557  0.06068308    -0.78800
O956        O  0.92403887  0.35102778  0.12570173    -0.89070
C957        C  0.96779175  0.30440145  0.94986394     0.84840
O958        O  0.87998094  0.29203112  0.12214038    -0.67270
O959        O  0.86461392  0.27531038  0.87602090    -0.86560
C960        C  0.89744904  0.27881707  0.10458890     0.85670
C961        C  0.95237474  0.35551523  0.10637132     1.07240
H962        H  0.89231674  0.27139269  0.97921664     0.39040
O963        O  0.89676066  0.29207049  0.96862432    -1.09220
O964        O  0.86561455  0.33078338  0.93554242    -0.65870
Ni965      Ni  0.86026438  0.30062642  0.98803061     1.26350
O966        O  0.91597513  0.28788023  0.06512919    -0.66100
O967        O  0.83112168  0.26964967  0.94427571    -0.78390
C968        C  0.81208926  0.30073884  0.05430728     0.85050
O969        O  0.82463871  0.30907287  0.01051989    -0.65570
Ni970      Ni  0.90957293  0.29564360  0.89767172     1.27450
Ni971      Ni  0.92667769  0.32031934  0.01493909     1.26060
H972        H  0.89525068  0.35092690  0.01934254     0.39590
C973        C  0.54037458  0.38356919  0.19935604    -0.04810
C974        C  0.53486659  0.36263299  0.15911993    -0.01920
C975        C  0.50496424  0.35203639  0.13260098     0.03070
C976        C  0.98257916  0.36629995  0.13896446    -0.04800
C977        C  0.98901695  0.38880375  0.17745440    -0.01910
C978        C  0.51728607  0.39651794  0.20894917     0.03060
C979        C  0.55950157  0.35094920  0.14552752     0.37710
C980        C  0.96642884  0.40346417  0.18546459     0.37700
C981        C  0.02269204  0.41765625  0.25107500     0.36130
C982        C  0.49518802  0.32303201  0.10607505     0.36130
N983        N  0.02703320  0.43448394  0.28482861    -0.38690
N984        N  0.48762171  0.29910166  0.08792419    -0.38690
N985        N  0.94838421  0.41518587  0.19192103    -0.38140
N986        N  0.57884897  0.34171862  0.13279206    -0.38140
C987        C  0.89641334  0.25165401  0.13244996    -0.04810
C988        C  0.91692289  0.25521884  0.17513872    -0.01920
C989        C  0.91602915  0.22937585  0.20184296     0.03070
C990        C  0.89169992  0.20000802  0.19045248    -0.04800
C991        C  0.87040958  0.19658840  0.14828102    -0.01910
C992        C  0.87349086  0.22229513  0.11857711     0.03060
C993        C  0.93729056  0.28541818  0.19434615     0.37710
C994        C  0.84425151  0.16707447  0.13654701     0.37700
C995        C  0.85194517  0.21884055  0.07520763     0.36130
C996        C  0.94101187  0.23300156  0.23987211     0.36130
N997        N  0.83478924  0.21622210  0.04066993    -0.38690
N998        N  0.96106193  0.23540406  0.26972001    -0.38690
N999        N  0.82327880  0.14359643  0.12716241    -0.38140
N1000       N  0.95301088  0.30905220  0.21185766    -0.38140
C1001       C  0.50804139  0.28839498  0.39824864    -0.04810
C1002       C  0.51974145  0.26563996  0.40973048    -0.01920
C1003       C  0.49803052  0.23423991  0.40871164     0.03070
C1004       C  0.96438055  0.22524479  0.39620592    -0.04800
C1005       C  0.95240050  0.24804708  0.38668748    -0.01910
C1006       C  0.97418210  0.27944788  0.38726789     0.03060
C1007       C  0.55455587  0.27454893  0.42042179     0.37710
C1008       C  0.91776106  0.23909074  0.37470728     0.37700
C1009       C  0.96198158  0.30257141  0.37508895     0.36130
C1010       C  0.51059541  0.21111024  0.41877811     0.36130
N1011       N  0.95229702  0.32106192  0.36529628    -0.38690
N1012       N  0.52068486  0.19269424  0.42686921    -0.38690
N1013       N  0.89011846  0.23188583  0.36508587    -0.38140
N1014       N  0.58236344  0.28173773  0.42880117    -0.38140
C1015       C  0.70611040  0.48610678  0.28225779    -0.04810
C1016       C  0.71270130  0.01677124  0.29392878    -0.01920
C1017       C  0.74536370  0.03928751  0.29043622     0.03070
C1018       C  0.77187670  0.03084563  0.27915087    -0.04800
C1019       C  0.76511878  0.50055737  0.26460619    -0.01910
C1020       C  0.73213562  0.47842187  0.26456530     0.03060
C1021       C  0.68586374  0.02513932  0.30916679     0.37710
C1022       C  0.79213767  0.49192620  0.25177699     0.37700
C1023       C  0.72513993  0.44752984  0.24769001     0.36130
C1024       C  0.75177320  0.07125358  0.29824175     0.36130
N1025       N  0.71956136  0.42291822  0.23402312    -0.38690
N1026       N  0.75694981  0.09676519  0.30428692    -0.38690
N1027       N  0.81372486  0.48502309  0.24176243    -0.38140
N1028       N  0.66443337  0.03180089  0.32131837    -0.38140
C1029       C  0.63662861  0.03327755  0.53352214    -0.04810
C1030       C  0.65721322  0.01732675  0.52463499    -0.01920
C1031       C  0.64610080  0.49063886  0.49466548     0.03070
C1032       C  0.61404907  0.47884216  0.47391838    -0.04800
C1033       C  0.59338009  0.49451827  0.48234794    -0.01910
C1034       C  0.60468663  0.02178010  0.51178130     0.03060
C1035       C  0.69062453  0.02869551  0.54483304     0.37710
C1036       C  0.56055660  0.48261370  0.46052148     0.37700
C1037       C  0.58307513  0.03735968  0.52094237     0.36130
C1038       C  0.66832962  0.47572443  0.48452682     0.36130
N1039       N  0.56577728  0.04977141  0.52827940    -0.38690
N1040       N  0.68690751  0.46472003  0.47699433    -0.38690
N1041       N  0.53434784  0.47307607  0.44306017    -0.38140
N1042       N  0.71722959  0.03739980  0.56070116    -0.38140
C1043       C  0.75988396  0.12105483  0.53186826    -0.04810
C1044       C  0.75409837  0.10386368  0.48658424    -0.01920
C1045       C  0.78061310  0.10150361  0.45983795     0.03070
C1046       C  0.81388219  0.12122953  0.47145587    -0.04800
C1047       C  0.81942500  0.14129309  0.51404425    -0.01910
C1048       C  0.79257399  0.13992747  0.54554399     0.03060
C1049       C  0.72066588  0.08792562  0.46751985     0.37710
C1050       C  0.85246073  0.16331584  0.52612763     0.37700
C1051       C  0.79837515  0.15866725  0.59110662     0.36130
C1052       C  0.77283360  0.07497889  0.42733032     0.36130
N1053       N  0.80285603  0.17355447  0.62751847    -0.38690
N1054       N  0.76547915  0.05245283  0.40464342    -0.38690
N1055       N  0.87876330  0.18100522  0.53586942    -0.38140
N1056       N  0.69431651  0.07570199  0.45110130    -0.38140
C1057       C  0.81033835  0.23912317  0.87091650    -0.04810
C1058       C  0.81352668  0.21132024  0.86264527    -0.01920
C1059       C  0.79125233  0.18916789  0.83057721     0.03070
C1060       C  0.76396844  0.19354865  0.81041558    -0.04800
C1061       C  0.75973150  0.22060035  0.82109367    -0.01910
C1062       C  0.78399961  0.24416060  0.84892538     0.03060
C1063       C  0.83994792  0.20558415  0.88686671     0.37710
C1064       C  0.72956631  0.22327099  0.80627568     0.37700
C1065       C  0.78341928  0.27416661  0.85120455     0.36130
C1066       C  0.79736991  0.16253653  0.81651429     0.36130
N1067       N  0.78360203  0.29841695  0.85117500    -0.38690
N1068       N  0.80274413  0.14165823  0.80479022    -0.38690
N1069       N  0.70488533  0.22477870  0.79602193    -0.38140
N1070       N  0.86076717  0.20084027  0.90650548    -0.38140
C1071       C  0.50945333  0.13187553  0.15547452    -0.04810
C1072       C  0.97828009  0.11348356  0.13482450    -0.01920
C1073       C  0.94914651  0.10595912  0.16451995     0.03070
C1074       C  0.95108011  0.11654744  0.21566690    -0.04800
C1075       C  0.98271412  0.13052295  0.23846190    -0.01910
C1076       C  0.51175534  0.13856241  0.20832623     0.03060
C1077       C  0.97613975  0.10368282  0.08186897     0.37710
C1078       C  0.98556060  0.13762868  0.29269631     0.37700
C1079       C  0.54373577  0.15629506  0.23084054     0.36130
C1080       C  0.91736383  0.08941536  0.14058895     0.36130
N1081       N  0.56920644  0.17053064  0.24881780    -0.38690
N1082       N  0.89208676  0.07620569  0.12127435    -0.38690
N1083       N  0.98796092  0.14328911  0.33594498    -0.38140
N1084       N  0.97447412  0.09587364  0.03965751    -0.38140
C1085       C  0.70932380  0.23488771  0.04913873    -0.04810
C1086       C  0.72750370  0.23844833  0.09518132    -0.01920
C1087       C  0.76070758  0.26053635  0.09849169     0.03070
C1088       C  0.77541210  0.28116103  0.05736812    -0.04800
C1089       C  0.75598823  0.27899067  0.01359117    -0.01910
C1090       C  0.72547473  0.25403233  0.00704406     0.03060
C1091       C  0.71304103  0.21826659  0.13849066     0.37710
C1092       C  0.76693816  0.30320146  0.97551727     0.37700
C1093       C  0.71271856  0.24729235  0.95548104     0.36130
C1094       C  0.77947888  0.26148665  0.14421532     0.36130
N1095       N  0.70364505  0.24176153  0.91378280    -0.38690
N1096       N  0.79433331  0.26207970  0.18077717    -0.38690
N1097       N  0.77669899  0.32331885  0.94670497    -0.38140
N1098       N  0.70165037  0.20223260  0.17316974    -0.38140
C1099       C  0.00377385  0.23566623  0.96711678    -0.04810
C1100       C  0.97964262  0.23191772  0.92938461    -0.01920
C1101       C  0.97073650  0.25640928  0.91714045     0.03070
C1102       C  0.98628157  0.28491538  0.94188987    -0.04800
C1103       C  0.51359101  0.28995627  0.97324530    -0.01910
C1104       C  0.52151691  0.26536860  0.98770275     0.03060
C1105       C  0.96254023  0.20239492  0.90528659     0.37710
C1106       C  0.53309327  0.32071589  0.99151939     0.37700
C1107       C  0.54786144  0.27155062  0.02424098     0.36130
C1108       C  0.94458383  0.25186301  0.88077886     0.36130
N1109       N  0.56905919  0.27853482  0.05362260    -0.38690
N1110       N  0.92398570  0.24838013  0.85130115    -0.38690
N1111       N  0.54870737  0.34523184  0.00587693    -0.38140
N1112       N  0.94888207  0.17885293  0.88601061    -0.38140
C1113       C  0.59489200  0.25597814  0.15713009    -0.04810
C1114       C  0.62651116  0.28005874  0.16176071    -0.01920
C1115       C  0.63074316  0.30576989  0.19195504     0.03070
C1116       C  0.60326405  0.30770282  0.21729722    -0.04800
C1117       C  0.57154598  0.28363513  0.21216241    -0.01910
C1118       C  0.56745864  0.25766626  0.18276097     0.03060
C1119       C  0.65455274  0.27898713  0.13383838     0.37710
C1120       C  0.54276624  0.28668502  0.23400958     0.37700
C1121       C  0.53505937  0.23256769  0.17917863     0.36130
C1122       C  0.66346467  0.33021696  0.19676756     0.36130
N1123       N  0.50926709  0.21249710  0.17649394    -0.38690
N1124       N  0.68958110  0.34970682  0.20034061    -0.38690
N1125       N  0.52024178  0.29000176  0.25115949    -0.38140
N1126       N  0.67702413  0.27842681  0.11152057    -0.38140
C1127       C  0.62747404  0.12382180  0.80017475    -0.04810
C1128       C  0.62130765  0.11498511  0.85239508    -0.01920
C1129       C  0.60571224  0.12897434  0.88499713     0.03070
C1130       C  0.59584566  0.15164082  0.86584267    -0.04800
C1131       C  0.59636668  0.15595258  0.81220889    -0.01910
C1132       C  0.61170174  0.14185961  0.77955828     0.03060
C1133       C  0.63177421  0.09232885  0.87343199     0.37710
C1134       C  0.58256654  0.17594792  0.79023837     0.37700
C1135       C  0.61166778  0.14644436  0.72457529     0.36130
C1136       C  0.59985856  0.12008073  0.93848270     0.36130
N1137       N  0.61159593  0.15011435  0.68077002    -0.38690
N1138       N  0.59492337  0.11262953  0.98099101    -0.38690
N1139       N  0.57112289  0.19134873  0.77180331    -0.38140
N1140       N  0.63974219  0.07399714  0.89030715    -0.38140
C1141       C  0.86753376  0.03512428  0.47011096    -0.04810
C1142       C  0.83758797  0.02509080  0.49790823    -0.01920
C1143       C  0.82432062  0.49603140  0.52065054     0.03070
C1144       C  0.84309285  0.47808604  0.52297146    -0.04800
C1145       C  0.87383966  0.48839153  0.49667599    -0.01910
C1146       C  0.88563783  0.01657559  0.46911725     0.03060
C1147       C  0.82127472  0.04546956  0.50721792     0.37710
C1148       C  0.89343678  0.47043139  0.49863341     0.37700
C1149       C  0.91639964  0.02665315  0.44034872     0.36130
C1150       C  0.79052438  0.48445634  0.54033516     0.36130
N1151       N  0.94099212  0.03474786  0.41735409    -0.38690
N1152       N  0.76346604  0.47572500  0.55502662    -0.38690
N1153       N  0.90911943  0.45608575  0.50024225    -0.38140
N1154       N  0.80790632  0.06099183  0.51811648    -0.38140
C1155       C  0.75395338  0.48774322  0.71772436    -0.04810
C1156       C  0.76384097  0.01190947  0.75354929    -0.01920
C1157       C  0.74555410  0.03014776  0.75872677     0.03070
C1158       C  0.71783776  0.02470761  0.72742877    -0.04800
C1159       C  0.70612289  0.49892230  0.69562762    -0.01910
C1160       C  0.72391597  0.48048170  0.69085884     0.03060
C1161       C  0.79373792  0.01921438  0.78293801     0.37710
C1162       C  0.67554397  0.49140862  0.66765294     0.37700
C1163       C  0.71064615  0.45391591  0.65817270     0.36130
C1164       C  0.75595685  0.05518951  0.79489180     0.36130
N1165       N  0.69926777  0.43304117  0.63152212    -0.38690
N1166       N  0.76397484  0.07486450  0.82436903    -0.38690
N1167       N  0.65109662  0.48527659  0.64561464    -0.38140
N1168       N  0.81762981  0.02513145  0.80637254    -0.38140
C1169       C  0.75785558  0.28845187  0.62249397    -0.04810
C1170       C  0.76023947  0.27175246  0.57881659    -0.01920
C1171       C  0.74088792  0.23967242  0.57587718     0.03070
C1172       C  0.71610856  0.22474910  0.61347305    -0.04800
C1173       C  0.71154972  0.24252418  0.65336122    -0.01910
C1174       C  0.73525899  0.27220229  0.66182328     0.03060
C1175       C  0.78460675  0.28678406  0.53915829     0.37710
C1176       C  0.68209610  0.23063391  0.68568577     0.37700
C1177       C  0.73910059  0.28325523  0.71385158     0.36130
C1178       C  0.74754146  0.22218408  0.53531864     0.36130
N1179       N  0.74291472  0.29060551  0.75628809    -0.38690
N1180       N  0.75307420  0.20826367  0.50309264    -0.38690
N1181       N  0.65835273  0.22152090  0.71083789    -0.38140
N1182       N  0.80412969  0.29869944  0.50753530    -0.38140
C1183       C  0.84540742  0.39281742  0.80181846    -0.04810
C1184       C  0.84866506  0.39886411  0.85509269    -0.01920
C1185       C  0.86481896  0.38502718  0.88646072     0.03070
C1186       C  0.87825910  0.36525748  0.86505286    -0.04800
C1187       C  0.87932172  0.36304742  0.81100315    -0.01910
C1188       C  0.86350876  0.37712205  0.77971111     0.03060
C1189       C  0.83423331  0.41814881  0.87848520     0.37710
C1190       C  0.89407374  0.34409194  0.78712379     0.37700
C1191       C  0.86518224  0.37453796  0.72443300     0.36130
C1192       C  0.86673190  0.39049226  0.94122333     0.36130
N1193       N  0.86664423  0.37229856  0.68044413    -0.38690
N1194       N  0.86819950  0.39487811  0.98489659    -0.38690
N1195       N  0.90568562  0.32892012  0.76789066    -0.38140
N1196       N  0.82299340  0.43372792  0.89731089    -0.38140
C1197       C  0.65904172  0.28134652  0.87206953    -0.04810
C1198       C  0.65390520  0.28364105  0.81887783    -0.01920
C1199       C  0.67894241  0.30468234  0.78800198     0.03070
C1200       C  0.70731768  0.32713951  0.81056573    -0.04800
C1201       C  0.71043755  0.32758962  0.86459380    -0.01910
C1202       C  0.68694982  0.30439097  0.89499858     0.03060
C1203       C  0.62177678  0.26733357  0.79578338     0.37710
C1204       C  0.73725382  0.35232701  0.88954013     0.37700
C1205       C  0.69001505  0.30623609  0.95036460     0.36130
C1206       C  0.67441389  0.30334506  0.73286784     0.36130
N1207       N  0.69243274  0.30793486  0.99446690    -0.38690
N1208       N  0.67045540  0.30114709  0.68907222    -0.38690
N1209       N  0.75820951  0.37236655  0.90957358    -0.38140
N1210       N  0.59605392  0.25613304  0.77694665    -0.38140
C1211       C  0.66347173  0.39061511  0.47202997    -0.04810
C1212       C  0.65882513  0.37910643  0.52307859    -0.01920
C1213       C  0.68613933  0.38016177  0.55203239     0.03070
C1214       C  0.71837890  0.39339171  0.53121298    -0.04800
C1215       C  0.72308133  0.40372260  0.48006287    -0.01910
C1216       C  0.69586453  0.40181889  0.45036220     0.03060
C1217       C  0.62631375  0.36709018  0.54716351     0.37710
C1218       C  0.75629874  0.41734520  0.45825328     0.37700
C1219       C  0.70177704  0.41128056  0.39720956     0.36130
C1220       C  0.68111078  0.36803613  0.60376529     0.36130
N1221       N  0.70725043  0.41895702  0.35492425    -0.38690
N1222       N  0.67701470  0.35894706  0.64541031    -0.38690
N1223       N  0.78271336  0.42828060  0.44081439    -0.38140
N1224       N  0.60044795  0.35740824  0.56660588    -0.38140
O1225       O  0.78212756  0.83910739  0.58501797    -0.80360
O1226       O  0.77536912  0.96018012  0.66330666    -0.65050
O1227       O  0.80396387  0.89621042  0.63857628    -1.11650
C1228       C  0.73173441  0.85163486  0.77813664     1.06530
O1229       O  0.78674986  0.96055611  0.74469106    -0.78260
O1230       O  0.80929911  0.91830760  0.78161413    -0.65840
Ni1231     Ni  0.80553440  0.88267970  0.56893214     1.34870
C1232       C  0.81871224  0.89701420  0.77133998     0.85260
O1233       O  0.81993107  0.95522988  0.60054794    -0.78800
O1234       O  0.82826137  0.92450576  0.54256938    -0.89070
C1235       C  0.77382346  0.96936689  0.70822923     0.84840
O1236       O  0.76448635  0.88214122  0.54706308    -0.67270
O1237       O  0.74414730  0.87866275  0.79624998    -0.86560
C1238       C  0.74752933  0.89653011  0.56210130     0.85670
C1239       C  0.83059212  0.95078951  0.55755533     1.07240
H1240       H  0.73900288  0.89829098  0.69012758     0.39040
O1241       O  0.76165189  0.90333044  0.69980614    -1.09220
O1242       O  0.80454285  0.87702237  0.73750146    -0.65870
Ni1243     Ni  0.77154031  0.86938688  0.68590576     1.26350
O1244       O  0.75514199  0.91451560  0.60036187    -0.66100
O1245       O  0.73864716  0.84488665  0.73352062    -0.78390
C1246       C  0.77552550  0.82280253  0.62569218     0.85050
O1247       O  0.78083809  0.83510848  0.66934891    -0.65570
Ni1248     Ni  0.76666269  0.91894730  0.76822711     1.27450
Ni1249     Ni  0.79062504  0.92912800  0.64957395     1.26060
H1250       H  0.82582220  0.90219262  0.65262124     0.39590
O1251       O  0.65555995  0.70704410  0.08774402    -0.80360
O1252       O  0.52019681  0.70649455  0.02688245    -0.65050
O1253       O  0.59295263  0.68264839  0.03796279    -1.11650
C1254       C  0.63453277  0.75613112  0.90367207     1.06530
O1255       O  0.52111003  0.69559078  0.94669871    -0.78260
O1256       O  0.56772184  0.68296321  0.89373598    -0.65840
Ni1257     Ni  0.61014964  0.67924979  0.10408206     1.34870
C1258       C  0.59079096  0.67403795  0.90154603     0.85260
O1259       O  0.53018488  0.66480169  0.08530221    -0.78800
O1260       O  0.56645926  0.65178955  0.12837155    -0.89070
C1261       C  0.01259456  0.70960456  0.98125949     0.84840
O1262       O  0.60551311  0.71286543  0.13674631    -0.67270
O1263       O  0.60464599  0.74486691  0.88860623    -0.86560
C1264       C  0.59046382  0.72941710  0.12450051     0.85670
C1265       C  0.53720789  0.65003859  0.12038233     1.07240
H1266       H  0.58734293  0.74242130  0.99561190     0.39040
O1267       O  0.58184431  0.72181090  0.98373385    -1.09220
O1268       O  0.61177535  0.68499976  0.93703733    -0.65870
Ni1269     Ni  0.61997871  0.71442216  0.99124197     1.26350
O1270       O  0.57200128  0.72458400  0.08562692    -0.66100
O1271       O  0.64414165  0.74688582  0.94402031    -0.78390
C1272       C  0.67279113  0.71461085  0.04662057     0.85050
O1273       O  0.65885876  0.70787569  0.00356678    -0.65570
Ni1274     Ni  0.56300564  0.71914509  0.91767946     1.27450
Ni1275     Ni  0.55561139  0.69330688  0.03460370     1.26060
H1276       H  0.58671487  0.66304127  0.02158184     0.39590
O1277       O  0.69513343  0.67304302  0.58020417    -0.80360
O1278       O  0.70796292  0.55961537  0.67434588    -0.65050
O1279       O  0.67399587  0.61838124  0.64101630    -1.11650
C1280       C  0.74010469  0.66925096  0.77901653     1.06530
O1281       O  0.69393146  0.55897474  0.75616345    -0.78260
O1282       O  0.66411150  0.59862917  0.78077017    -0.65840
Ni1283     Ni  0.67092247  0.62899541  0.57043153     1.34870
C1284       C  0.65483859  0.61992283  0.77019550     0.85260
O1285       O  0.66451113  0.55980750  0.60619544    -0.78800
O1286       O  0.64717556  0.58611000  0.55137591    -0.89070
C1287       C  0.70576640  0.54897892  0.71927440     0.84840
O1288       O  0.71099665  0.62801962  0.54588372    -0.67270
O1289       O  0.72620991  0.64289593  0.79992179    -0.86560
C1290       C  0.73126795  0.61826966  0.56447036     0.85670
C1291       C  0.64948107  0.56146907  0.56598761     1.07240
H1292       H  0.73953314  0.62170362  0.69785929     0.39040
O1293       O  0.71630443  0.61570271  0.70552640    -1.09220
O1294       O  0.67018335  0.64041374  0.73710967    -0.65870
Ni1295     Ni  0.70446783  0.64776877  0.68637325     1.26350
O1296       O  0.72709387  0.60451359  0.60750899    -0.66100
O1297       O  0.73560330  0.67506824  0.73269005    -0.78390
C1298       C  0.69998404  0.69058396  0.61885046     0.85050
O1299       O  0.69353549  0.67982285  0.66376380    -0.65570
Ni1300     Ni  0.70882072  0.60160562  0.77483140     1.27450
Ni1301     Ni  0.69046184  0.58808736  0.65566970     1.26060
H1302       H  0.65193465  0.61134118  0.65542040     0.39590
O1303       O  0.92793861  0.67514668  0.42592447    -0.80360
O1304       O  0.81543646  0.56278835  0.33114803    -0.65050
O1305       O  0.90133761  0.62063951  0.36559465    -1.11650
C1306       C  0.88733658  0.67357888  0.22449620     1.06530
O1307       O  0.82542850  0.56379639  0.24747321    -0.78260
O1308       O  0.89254480  0.59771688  0.23272064    -0.65840
Ni1309     Ni  0.91282345  0.63097490  0.43603519     1.34870
C1310       C  0.92134970  0.61784654  0.24193315     0.85260
O1311       O  0.85888633  0.56185014  0.40026522    -0.78800
O1312       O  0.90022008  0.58820234  0.45369008    -0.89070
C1313       C  0.80629510  0.55360383  0.28613674     0.84840
O1314       O  0.87073924  0.62861990  0.46063878    -0.67270
O1315       O  0.87856709  0.64706863  0.20468311    -0.86560
C1316       C  0.84207027  0.61916529  0.44107703     0.85430
C1317       C  0.87694612  0.56342475  0.43874630     1.07240
H1318       H  0.84000650  0.62572700  0.30749767     0.39040
O1319       O  0.85763746  0.61924378  0.30014153    -1.09220
O1320       O  0.92568662  0.64093913  0.27008304    -0.65870
Ni1321     Ni  0.89836193  0.65057977  0.31948036     1.26350
O1322       O  0.83592773  0.60698917  0.39698093    -0.66100
O1323       O  0.89278523  0.67832472  0.27222140    -0.78390
C1324       C  0.94256567  0.69227006  0.38790463     0.85050
O1325       O  0.93830487  0.68241152  0.34232983    -0.65570
Ni1326     Ni  0.85362398  0.60596940  0.23052569     1.27450
Ni1327     Ni  0.85829579  0.59072199  0.35004811     1.26060
H1328       H  0.91712771  0.61319620  0.35229213     0.39590
O1329       O  0.54178234  0.83826458  0.43080270    -0.80360
O1330       O  0.66191064  0.95476505  0.33657960    -0.65050
O1331       O  0.57687463  0.89203162  0.37031123    -1.11650
C1332       C  0.60700136  0.83572010  0.24590412     1.06530
O1333       O  0.65584771  0.94740593  0.25310991    -0.78260
O1334       O  0.59694096  0.90478563  0.22166563    -0.65840
Ni1335     Ni  0.56693333  0.88206330  0.44189167     1.34870
C1336       C  0.56760920  0.88732230  0.23483027     0.85260
O1337       O  0.61181330  0.95380501  0.39524973    -0.78800
O1338       O  0.58912523  0.92461159  0.46384719    -0.89070
C1339       C  0.67272158  0.96160172  0.29112928     0.84840
O1340       O  0.60587752  0.87486994  0.45275775    -0.67270
O1341       O  0.62286933  0.86151230  0.22432240    -0.86560
C1342       C  0.63550588  0.89320913  0.44291845     0.85670
C1343       C  0.60339487  0.95073344  0.44212243     1.07240
H1344       H  0.64276860  0.88887208  0.32841309     0.39040
O1345       O  0.62583601  0.89413119  0.31358403    -1.09220
O1346       O  0.56061912  0.86976504  0.27375990    -0.65870
Ni1347     Ni  0.58431666  0.86191413  0.32963399     1.26350
O1348       O  0.64230726  0.91480293  0.41028432    -0.66100
O1349       O  0.59318570  0.83275065  0.28962760    -0.78390
C1350       C  0.53204640  0.82092099  0.39183468     0.85050
O1351       O  0.54312068  0.82975308  0.34725680    -0.65570
Ni1352     Ni  0.63785113  0.90391056  0.24272129     1.27450
Ni1353     Ni  0.61929331  0.92419613  0.35452096     1.26060
H1354       H  0.55962624  0.89698265  0.35575033     0.39590
O1355       O  0.83062028  0.80640000  0.09344523    -0.80360
O1356       O  0.96068524  0.80809975  0.99554642    -0.65050
O1357       O  0.89052885  0.83067267  0.03243670    -1.11650
C1358       C  0.83665128  0.76334883  0.89871378     1.06530
O1359       O  0.95585009  0.81387844  0.91307801    -0.78260
O1360       O  0.90867236  0.83499375  0.88635032    -0.65840
Ni1361     Ni  0.87810169  0.82964623  0.10431646     1.34870
C1362       C  0.88540240  0.84304125  0.89836460     0.85260
O1363       O  0.95634648  0.84858561  0.06068316    -0.78800
O1364       O  0.92403886  0.85102784  0.12570177    -0.89070
C1365       C  0.96779179  0.80440154  0.94986400     0.84840
O1366       O  0.87998095  0.79203118  0.12214040    -0.67270
O1367       O  0.86461399  0.77531046  0.87602087    -0.86560
C1368       C  0.89744903  0.77881712  0.10458892     0.85670
C1369       C  0.95237473  0.85551526  0.10637139     1.07240
H1370       H  0.89231677  0.77139276  0.97921661     0.39040
O1371       O  0.89676069  0.79207056  0.96862431    -1.09220
O1372       O  0.86561460  0.83078347  0.93554242    -0.65870
Ni1373     Ni  0.86026441  0.80062650  0.98803058     1.26350
O1374       O  0.91597511  0.78788027  0.06512919    -0.66100
O1375       O  0.83112173  0.76964975  0.94427565    -0.78390
C1376       C  0.81208927  0.80073887  0.05430724     0.85050
O1377       O  0.82463873  0.80907294  0.01051986    -0.65570
Ni1378     Ni  0.90957299  0.79564369  0.89767173     1.27450
Ni1379     Ni  0.92667771  0.82031940  0.01493912     1.26060
H1380       H  0.89525071  0.85092696  0.01934256     0.39590
C1381       C  0.54037461  0.88356922  0.19935601    -0.04810
C1382       C  0.53486663  0.86263302  0.15911989    -0.01920
C1383       C  0.50496427  0.85203641  0.13260098     0.03070
C1384       C  0.98257914  0.86629995  0.13896456    -0.04800
C1385       C  0.98901696  0.88880377  0.17745447    -0.01910
C1386       C  0.51728609  0.89651796  0.20894917     0.03060
C1387       C  0.55950161  0.85094924  0.14552747     0.37710
C1388       C  0.96642890  0.90346424  0.18546462     0.37700
C1389       C  0.02269210  0.91765628  0.25107502     0.36130
C1390       C  0.49518804  0.82303203  0.10607506     0.36130
N1391       N  0.02703329  0.93448399  0.28482860    -0.38690
N1392       N  0.48762174  0.79910167  0.08792421    -0.38690
N1393       N  0.94838431  0.91518598  0.19192103    -0.38140
N1394       N  0.57884902  0.84171868  0.13279199    -0.38140
C1395       C  0.89641333  0.75165406  0.13244998    -0.04810
C1396       C  0.91692281  0.75521890  0.17513882    -0.01920
C1397       C  0.91602908  0.72937591  0.20184308     0.03070
C1398       C  0.89169991  0.70000807  0.19045251    -0.04800
C1399       C  0.87040962  0.69658844  0.14828097    -0.01910
C1400       C  0.87349090  0.72229517  0.11857706     0.03060
C1401       C  0.93729043  0.78541825  0.19434630     0.37710
C1402       C  0.84425159  0.66707450  0.13654688     0.37700
C1403       C  0.85194526  0.71884058  0.07520751     0.36130
C1404       C  0.94101172  0.73300167  0.23987237     0.36130
N1405       N  0.83478936  0.71622212  0.04066977    -0.38690
N1406       N  0.96106172  0.73540419  0.26972041    -0.38690
N1407       N  0.82327892  0.64359645  0.12716222    -0.38140
N1408       N  0.95301070  0.80905226  0.21185784    -0.38140
C1409       C  0.50804140  0.78839497  0.39824861    -0.04810
C1410       C  0.51974145  0.76563996  0.40973049    -0.01920
C1411       C  0.49803052  0.73423990  0.40871168     0.03070
C1412       C  0.96438062  0.72524474  0.39620591    -0.04800
C1413       C  0.95240050  0.74804704  0.38668799    -0.01910
C1414       C  0.97418211  0.77944785  0.38726844     0.03060
C1415       C  0.55455587  0.77454893  0.42042181     0.37710
C1416       C  0.91776101  0.73909072  0.37470822     0.37700
C1417       C  0.96198152  0.80257139  0.37509001     0.36130
C1418       C  0.51059541  0.71111024  0.41877819     0.36130
N1419       N  0.95229690  0.82106192  0.36529773    -0.38690
N1420       N  0.52068486  0.69269424  0.42686932    -0.38690
N1421       N  0.89011837  0.73188581  0.36508714    -0.38140
N1422       N  0.58236344  0.78173773  0.42880120    -0.38140
C1423       C  0.70611044  0.98610676  0.28225781    -0.04810
C1424       C  0.71270126  0.51677126  0.29392877    -0.01920
C1425       C  0.74536365  0.53928753  0.29043620     0.03070
C1426       C  0.77187665  0.53084566  0.27915083    -0.04800
C1427       C  0.76511882  0.00055735  0.26460622    -0.01910
C1428       C  0.73213566  0.97842184  0.26456532     0.03060
C1429       C  0.68586369  0.52513934  0.30916677     0.37710
C1430       C  0.79213771  0.99192617  0.25177702     0.37700
C1431       C  0.72513997  0.94752982  0.24769003     0.36130
C1432       C  0.75177315  0.57125360  0.29824174     0.36130
N1433       N  0.71956140  0.92291820  0.23402313    -0.38690
N1434       N  0.75694977  0.59676521  0.30428691    -0.38690
N1435       N  0.81372490  0.98502307  0.24176246    -0.38140
N1436       N  0.66443333  0.53180091  0.32131836    -0.38140
C1437       C  0.63662864  0.53327756  0.53352218    -0.04810
C1438       C  0.65721324  0.51732676  0.52463502    -0.01920
C1439       C  0.64610079  0.99063886  0.49466546     0.03070
C1440       C  0.61404906  0.97884215  0.47391835    -0.04800
C1441       C  0.59338007  0.99451825  0.48234791    -0.01910
C1442       C  0.60468666  0.52178012  0.51178133     0.03060
C1443       C  0.69062455  0.52869552  0.54483306     0.37710
C1444       C  0.56055658  0.98261367  0.46052144     0.37700
C1445       C  0.58307517  0.53735971  0.52094241     0.36130
C1446       C  0.66832961  0.97572443  0.48452680     0.36130
N1447       N  0.56577732  0.54977144  0.52827945    -0.38690
N1448       N  0.68690750  0.96472003  0.47699431    -0.38690
N1449       N  0.53434782  0.97307603  0.44306014    -0.38140
N1450       N  0.71722962  0.53739980  0.56070116    -0.38140
C1451       C  0.75988399  0.62105483  0.53186826    -0.04810
C1452       C  0.75409839  0.60386368  0.48658425    -0.01920
C1453       C  0.78061312  0.60150360  0.45983794     0.03070
C1454       C  0.81388221  0.62122952  0.47145585    -0.04800
C1455       C  0.81942503  0.64129308  0.51404424    -0.01910
C1456       C  0.79257403  0.63992747  0.54554398     0.03060
C1457       C  0.72066590  0.58792563  0.46751986     0.37710
C1458       C  0.85246077  0.66331583  0.52612760     0.37700
C1459       C  0.79837520  0.65866725  0.59110662     0.36130
C1460       C  0.77283360  0.57497889  0.42733030     0.36130
N1461       N  0.80285609  0.67355446  0.62751847    -0.38690
N1462       N  0.76547914  0.55245283  0.40464339    -0.38690
N1463       N  0.87876334  0.68100520  0.53586938    -0.38140
N1464       N  0.69431652  0.57570200  0.45110133    -0.38140
C1465       C  0.81033844  0.73912324  0.87091645    -0.04810
C1466       C  0.81352674  0.71132029  0.86264534    -0.01920
C1467       C  0.79125239  0.68916791  0.83057731     0.03070
C1468       C  0.76396852  0.69354868  0.81041561    -0.04800
C1469       C  0.75973160  0.72060040  0.82109357    -0.01910
C1470       C  0.78399973  0.74416068  0.84892523     0.03060
C1471       C  0.83994797  0.70558421  0.88686684     0.37710
C1472       C  0.72956642  0.72327104  0.80627555     0.37700
C1473       C  0.78341946  0.77416671  0.85120420     0.36130
C1474       C  0.79736995  0.66253652  0.81651452     0.36130
N1475       N  0.78360227  0.79841708  0.85117449    -0.38690
N1476       N  0.80274416  0.64165820  0.80479055    -0.38690
N1477       N  0.70488544  0.72477874  0.79602179    -0.38140
N1478       N  0.86076722  0.70084035  0.90650565    -0.38140
C1479       C  0.50945334  0.63187553  0.15547458    -0.04810
C1480       C  0.97827999  0.61348366  0.13482421    -0.01920
C1481       C  0.94914641  0.60595924  0.16451964     0.03070
C1482       C  0.95108003  0.61654740  0.21566670    -0.04800
C1483       C  0.98271402  0.63052275  0.23846176    -0.01910
C1484       C  0.51175535  0.63856243  0.20832628     0.03060
C1485       C  0.97613963  0.60368307  0.08186859     0.37710
C1486       C  0.98556049  0.63762830  0.29269624     0.37700
C1487       C  0.54373577  0.65629510  0.23084059     0.36130
C1488       C  0.91736371  0.58941570  0.14058854     0.36130
N1489       N  0.56920644  0.67053069  0.24881784    -0.38690
N1490       N  0.89208664  0.57620621  0.12127385    -0.38690
N1491       N  0.98796079  0.64328860  0.33594496    -0.38140
N1492       N  0.97447399  0.59587401  0.03965707    -0.38140
C1493       C  0.70932382  0.73488765  0.04913874    -0.04810
C1494       C  0.72750372  0.73844834  0.09518134    -0.01920
C1495       C  0.76070760  0.76053638  0.09849169     0.03070
C1496       C  0.77541212  0.78116100  0.05736804    -0.04800
C1497       C  0.75598825  0.77899056  0.01359104    -0.01910
C1498       C  0.72547476  0.75403220  0.00704399     0.03060
C1499       C  0.71304106  0.71826666  0.13849075     0.37710
C1500       C  0.76693818  0.80320127  0.97551701     0.37700
C1501       C  0.71271857  0.74729215  0.95548099     0.36130
C1502       C  0.77947889  0.76148677  0.14421537     0.36130
N1503       N  0.70364503  0.74176128  0.91378277    -0.38690
N1504       N  0.79433330  0.76207988  0.18077727    -0.38690
N1505       N  0.77669899  0.82331860  0.94670460    -0.38140
N1506       N  0.70165040  0.70223271  0.17316988    -0.38140
C1507       C  0.00377392  0.73566633  0.96711678    -0.04810
C1508       C  0.97964270  0.73191783  0.92938459    -0.01920
C1509       C  0.97073657  0.75640939  0.91714046     0.03070
C1510       C  0.98628163  0.78491548  0.94188993    -0.04800
C1511       C  0.51359101  0.78995625  0.97324532    -0.01910
C1512       C  0.52151693  0.76536859  0.98770275     0.03060
C1513       C  0.96254033  0.70239504  0.90528652     0.37710
C1514       C  0.53309328  0.82071587  0.99151938     0.37700
C1515       C  0.54786149  0.77155061  0.02424093     0.36130
C1516       C  0.94458391  0.75186313  0.88077886     0.36130
N1517       N  0.56905926  0.77853482  0.05362252    -0.38690
N1518       N  0.92398578  0.74838025  0.85130116    -0.38690
N1519       N  0.54870737  0.84523182  0.00587689    -0.38140
N1520       N  0.94888218  0.67885306  0.88601051    -0.38140
C1521       C  0.59489202  0.75597813  0.15713009    -0.04810
C1522       C  0.62651120  0.78005870  0.16176083    -0.01920
C1523       C  0.63074318  0.80576985  0.19195515     0.03070
C1524       C  0.60326406  0.80770281  0.21729721    -0.04800
C1525       C  0.57154597  0.78363516  0.21216228    -0.01910
C1526       C  0.56745864  0.75766628  0.18276086     0.03060
C1527       C  0.65455280  0.77898706  0.13383861     0.37710
C1528       C  0.54276621  0.78668508  0.23400932     0.37700
C1529       C  0.53505936  0.73256774  0.17917840     0.36130
C1530       C  0.66346470  0.83021689  0.19676781     0.36130
N1531       N  0.50926706  0.71249718  0.17649363    -0.38690
N1532       N  0.68958114  0.84970672  0.20034097    -0.38690
N1533       N  0.52024175  0.79000186  0.25115913    -0.38140
N1534       N  0.67702421  0.77842672  0.11152088    -0.38140
C1535       C  0.62747412  0.62382179  0.80017480    -0.04810
C1536       C  0.62130775  0.61498511  0.85239514    -0.01920
C1537       C  0.60571232  0.62897433  0.88499719     0.03070
C1538       C  0.59584568  0.65164076  0.86584272    -0.04800
C1539       C  0.59636667  0.65595250  0.81220894    -0.01910
C1540       C  0.61170177  0.64185957  0.77955833     0.03060
C1541       C  0.63177438  0.59232890  0.87343207     0.37710
C1542       C  0.58256643  0.67594776  0.79023840     0.37700
C1543       C  0.61166781  0.64644430  0.72457534     0.36130
C1544       C  0.59985867  0.62008073  0.93848277     0.36130
N1545       N  0.61159596  0.65011429  0.68077006    -0.38690
N1546       N  0.59492351  0.61262954  0.98099110    -0.38690
N1547       N  0.57112270  0.69134851  0.77180334    -0.38140
N1548       N  0.63974241  0.57399723  0.89030725    -0.38140
C1549       C  0.86753375  0.53512425  0.47011086    -0.04810
C1550       C  0.83758797  0.52509078  0.49790816    -0.01920
C1551       C  0.82432060  0.99603141  0.52065059     0.03070
C1552       C  0.84309285  0.97808607  0.52297154    -0.04800
C1553       C  0.87383967  0.98839157  0.49667611    -0.01910
C1554       C  0.88563782  0.51657555  0.46911712     0.03060
C1555       C  0.82127473  0.54546954  0.50721786     0.37710
C1556       C  0.89343680  0.97043144  0.49863355     0.37700
C1557       C  0.91639961  0.52665310  0.44034856     0.36130
C1558       C  0.79052435  0.98445634  0.54033516     0.36130
N1559       N  0.94099208  0.53474781  0.41735390    -0.38690
N1560       N  0.76346601  0.97572500  0.55502659    -0.38690
N1561       N  0.90911945  0.95608580  0.50024241    -0.38140
N1562       N  0.80790634  0.56099182  0.51811643    -0.38140
C1563       C  0.75395332  0.98774321  0.71772440    -0.04810
C1564       C  0.76384103  0.51190947  0.75354928    -0.01920
C1565       C  0.74555415  0.53014775  0.75872677     0.03070
C1566       C  0.71783782  0.52470761  0.72742877    -0.04800
C1567       C  0.70612283  0.99892229  0.69562764    -0.01910
C1568       C  0.72391591  0.98048169  0.69085888     0.03060
C1569       C  0.79373797  0.51921436  0.78293801     0.37710
C1570       C  0.67554391  0.99140861  0.66765296     0.37700
C1571       C  0.71064609  0.95391590  0.65817274     0.36130
C1572       C  0.75595690  0.55518948  0.79489183     0.36130
N1573       N  0.69926771  0.93304116  0.63152215    -0.38690
N1574       N  0.76397487  0.57486446  0.82436909    -0.38690
N1575       N  0.65109656  0.98527657  0.64561465    -0.38140
N1576       N  0.81762986  0.52513143  0.80637255    -0.38140
C1577       C  0.75785559  0.78845190  0.62249399    -0.04810
C1578       C  0.76023948  0.77175249  0.57881661    -0.01920
C1579       C  0.74088794  0.73967244  0.57587720     0.03070
C1580       C  0.71610858  0.72474911  0.61347307    -0.04800
C1581       C  0.71154973  0.74252419  0.65336122    -0.01910
C1582       C  0.73525899  0.77220231  0.66182329     0.03060
C1583       C  0.78460677  0.78678410  0.53915832     0.37710
C1584       C  0.68209610  0.73063391  0.68568576     0.37700
C1585       C  0.73910058  0.78325525  0.71385159     0.36130
C1586       C  0.74754150  0.72218411  0.53531866     0.36130
N1587       N  0.74291470  0.79060551  0.75628809    -0.38690
N1588       N  0.75307424  0.70826370  0.50309267    -0.38690
N1589       N  0.65835273  0.72152089  0.71083787    -0.38140
N1590       N  0.80412970  0.79869948  0.50753532    -0.38140
C1591       C  0.84540746  0.89281750  0.80181848    -0.04810
C1592       C  0.84866510  0.89886419  0.85509271    -0.01920
C1593       C  0.86481902  0.88502726  0.88646073     0.03070
C1594       C  0.87825917  0.86525758  0.86505287    -0.04800
C1595       C  0.87932179  0.86304752  0.81100316    -0.01910
C1596       C  0.86350881  0.87712214  0.77971112     0.03060
C1597       C  0.83423334  0.91814887  0.87848521     0.37710
C1598       C  0.89407383  0.84409205  0.78712380     0.37700
C1599       C  0.86518229  0.87453805  0.72443301     0.36130
C1600       C  0.86673196  0.89049236  0.94122333     0.36130
N1601       N  0.86664429  0.87229865  0.68044414    -0.38690
N1602       N  0.86819957  0.89487821  0.98489659    -0.38690
N1603       N  0.90568571  0.82892024  0.76789067    -0.38140
N1604       N  0.82299341  0.93372798  0.89731091    -0.38140
C1605       C  0.65904180  0.78134646  0.87206958    -0.04810
C1606       C  0.65390528  0.78364099  0.81887787    -0.01920
C1607       C  0.67894246  0.80468232  0.78800204     0.03070
C1608       C  0.70731773  0.82713949  0.81056581    -0.04800
C1609       C  0.71043761  0.82758958  0.86459386    -0.01910
C1610       C  0.68694989  0.80439091  0.89499863     0.03060
C1611       C  0.62177688  0.76733343  0.79578339     0.37710
C1612       C  0.73725388  0.85232695  0.88954020     0.37700
C1613       C  0.69001514  0.80623600  0.95036466     0.36130
C1614       C  0.67441393  0.80334508  0.73286791     0.36130
N1615       N  0.69243284  0.80793474  0.99446696    -0.38690
N1616       N  0.67045543  0.80114713  0.68907228    -0.38690
N1617       N  0.75820959  0.87236648  0.90957366    -0.38140
N1618       N  0.59605405  0.75613283  0.77694662    -0.38140
C1619       C  0.66347173  0.89061510  0.47202999    -0.04810
C1620       C  0.65882512  0.87910644  0.52307862    -0.01920
C1621       C  0.68613932  0.88016177  0.55203242     0.03070
C1622       C  0.71837889  0.89339170  0.53121300    -0.04800
C1623       C  0.72308132  0.90372257  0.48006289    -0.01910
C1624       C  0.69586453  0.90181886  0.45036221     0.03060
C1625       C  0.62631375  0.86709022  0.54716355     0.37710
C1626       C  0.75629873  0.91734516  0.45825329     0.37700
C1627       C  0.70177703  0.91128049  0.39720956     0.36130
C1628       C  0.68111077  0.86803614  0.60376533     0.36130
N1629       N  0.70725041  0.91895693  0.35492424    -0.38690
N1630       N  0.67701469  0.85894708  0.64541035    -0.38690
N1631       N  0.78271335  0.92828055  0.44081441    -0.38140
N1632       N  0.60044795  0.85740832  0.56660593    -0.38140
loop_ 
_geom_bond_atom_site_label_1 
_geom_bond_atom_site_label_2 
_geom_bond_distance 
_geom_bond_site_symmetry_2 
_ccdc_geom_bond_type 
O1           Ni7   1.957       .  S
O1           C22   1.277       .  A
O2          Ni25   1.896       .  S
O2           C11   1.264       .  A
O3           Ni7   1.941       .  S
O3          Ni25   1.913       .  S
O3          Ni19   1.924       .  S
O3           H26   0.966       .  S
C4           O21   1.276       .  A
C4           O13   1.275       .  A
C4          C384   1.487       .  S
O5          Ni24   1.918       .  S
O5           C11   1.271       .  A
O6          Ni24   1.933       .  S
O6            C8   1.274       .  A
Ni7          O10   1.959       .  S
Ni7          O12   1.898       .  S
C8           O18   1.270       .  A
C8          C367   1.508       .  S
O9          Ni25   1.880       .  S
O9           C15   1.265       .  A
O10          C15   1.280       .  A
C11         C339   1.493       .  S
O12          C14   1.266       .  A
O13         Ni24   1.915       .  S
C14          O20   1.274       .  A
C14         C398   1.482       .  S
C15         C328   1.493       .  S
H16          O17   0.966       .  S
O17         Ni25   1.889       .  S
O17         Ni19   1.879       .  S
O17         Ni24   1.917       .  S
O18         Ni19   1.919       .  S
Ni19         O23   1.894       .  S
Ni19         O21   1.902       .  S
O20         Ni25   1.936       .  S
C22          O23   1.263       .  A
C22         C353   1.508       .  S
O27         Ni33   1.949       .  S
O27          C48   1.275       .  A
O28         Ni51   1.923       .  S
O28         C853   1.266   1_554  A
O29         Ni33   1.926       .  S
O29         Ni51   1.918       .  S
O29         Ni45   1.930   1_554  S
O29          H52   0.965       .  S
C30          O47   1.283       .  A
C30          O39   1.274       .  A
C30         C381   1.494       .  S
O31         Ni50   1.886       .  S
O31         C853   1.267       .  A
O32         Ni50   1.928       .  S
O32          C34   1.273       .  A
Ni33         O36   1.944       .  S
Ni33         O38   1.902       .  S
C34          O44   1.271       .  A
C34         C314   1.502       .  S
O35         Ni51   1.898       .  S
O35          C41   1.271       .  A
O36          C41   1.281       .  A
C37         O844   1.266   1_556  A
C37         O847   1.267       .  A
C37         C283   1.496       .  S
O38          C40   1.266       .  A
O39         Ni50   1.901       .  S
C40          O46   1.270       .  A
C40         C297   1.476       .  S
C41         C255   1.488       .  S
H42          O43   0.966       .  S
O43         Ni51   1.912   1_556  S
O43         Ni45   1.869       .  S
O43         Ni50   1.904       .  S
O44         Ni45   1.926       .  S
Ni45         O49   1.898   1_556  S
Ni45         O47   1.924       .  S
O46         Ni51   1.917       .  S
C48          O49   1.264       .  A
C48         C269   1.511       .  S
O53         Ni59   1.955       .  S
O53          C74   1.275       .  A
O54         Ni77   1.884       .  S
O54          C63   1.266       .  A
O55         Ni59   1.932       .  S
O55         Ni77   1.906       .  S
O55         Ni71   1.920       .  S
O55          H78   0.966       .  S
C56          O73   1.277       .  A
C56          O65   1.276       .  A
C56         C244   1.469       .  S
O57         Ni76   1.935       .  S
O57          C63   1.275       .  A
O58         Ni76   1.928       .  S
O58          C60   1.273       .  A
Ni59         O62   1.954       .  S
Ni59         O64   1.897       .  S
C60          O70   1.271       .  A
C60         C311   1.509       .  S
O61         Ni77   1.893       .  S
O61          C67   1.267       .  A
O62          C67   1.281       .  A
C63         C342   1.477       .  S
O64          C66   1.266       .  A
O65         Ni76   1.923       .  S
C66          O72   1.276       .  A
C66         C227   1.479       .  S
C67         C213   1.499       .  S
H68          O69   0.967       .  S
O69         Ni77   1.884       .  S
O69         Ni71   1.879       .  S
O69         Ni76   1.910       .  S
O70         Ni71   1.926       .  S
Ni71         O75   1.881       .  S
Ni71         O73   1.906       .  S
O72         Ni77   1.937       .  S
C74          O75   1.263       .  A
C74         C356   1.500       .  S
O79         Ni85   1.957       .  S
O79         C100   1.278       .  A
O80        Ni103   1.893       .  S
O80          C89   1.266       .  A
O81         Ni85   1.923       .  S
O81        Ni103   1.907       .  S
O81         Ni97   1.916       .  S
O81         H104   0.965       .  S
C82          O99   1.274       .  A
C82          O91   1.277       .  A
C82         C174   1.491       .  S
O83        Ni102   1.941       .  S
O83          C89   1.274       .  A
O84        Ni102   1.916       .  S
O84          C86   1.272       .  A
Ni85         O88   1.943       .  S
Ni85         O90   1.922       .  S
C86          O96   1.276       .  A
C86         C258   1.501       .  S
O87        Ni103   1.912       .  S
O87          C93   1.272       .  A
O88          C93   1.278       .  A
C89         C202   1.481       .  S
O90          C92   1.272       .  A
O91        Ni102   1.939       .  S
C92          O98   1.271       .  A
C92         C230   1.508       .  S
C93         C325   1.487       .  S
H94          O95   0.966       .  S
O95        Ni103   1.895       .  S
O95         Ni97   1.889       .  S
O95        Ni102   1.912       .  S
O96         Ni97   1.939       .  S
Ni97        O101   1.905       .  S
Ni97         O99   1.901       .  S
O98        Ni103   1.920       .  S
C100        O101   1.267       .  A
C100        C188   1.494       .  S
O105       Ni111   1.955       .  S
O105        C126   1.276       .  A
O106       Ni129   1.912       .  S
O106        C115   1.268       .  A
O107       Ni111   1.931       .  S
O107       Ni129   1.923       .  S
O107       Ni123   1.921       .  S
O107        H130   0.966       .  S
C108        O125   1.270       .  A
C108        O117   1.273       .  A
C108        C300   1.484       .  S
O109       Ni128   1.922       .  S
O109        C115   1.267       .  A
O110       Ni128   1.912       .  S
O110        C112   1.269       .  A
Ni111       O114   1.955       .  S
Ni111       O116   1.911       .  S
C112        O122   1.272       .  A
C112        C157   1.478       .  S
O113       Ni129   1.902       .  S
O113        C119   1.267       .  A
O114        C119   1.278       .  A
C115        C199   1.482       .  S
O116        C118   1.270       .  A
O117       Ni128   1.923       .  S
C118        O124   1.275       .  A
C118        C395   1.504       .  S
C119        C216   1.487       .  S
H120        O121   0.965       .  S
O121       Ni129   1.904       .  S
O121       Ni123   1.900       .  S
O121       Ni128   1.925       .  S
O122       Ni123   1.927       .  S
Ni123       O127   1.899       .  S
Ni123       O125   1.904       .  S
O124       Ni129   1.938       .  S
C126        O127   1.263       .  A
C126        C185   1.494       .  S
O131       Ni137   1.960       .  S
O131        C152   1.274       .  A
O132       Ni155   1.886   1_556  S
O132        C141   1.262       .  A
O133       Ni137   1.946       .  S
O133       Ni155   1.907       .  S
O133       Ni149   1.915   1_554  S
O133        H156   0.966       .  S
C134        O151   1.273       .  A
C134        O143   1.273       .  A
C134        C241   1.464       .  S
O135       Ni154   1.917       .  S
O135        C141   1.269       .  A
O136       Ni154   1.921       .  S
O136        C138   1.273       .  A
Ni137       O140   1.954       .  S
Ni137       O142   1.892       .  S
C138        O148   1.273       .  A
C138        C370   1.504       .  S
O139       Ni155   1.888       .  S
O139        C145   1.268       .  A
O140        C145   1.281       .  A
C141        C286   1.481       .  S
O142        C144   1.263       .  A
O143       Ni154   1.915       .  S
C144        O150   1.272       .  A
C144        C171   1.473       .  S
C145        C160   1.495       .  S
H146        O147   0.966       .  S
O147       Ni155   1.902   1_556  S
O147       Ni149   1.884       .  S
O147       Ni154   1.920       .  S
O148       Ni149   1.931       .  S
Ni149       O153   1.868   1_556  S
Ni149       O151   1.907       .  S
O150       Ni155   1.934       .  S
C152        O153   1.258       .  A
C152        C272   1.509       .  S
C157        C158   1.405       .  A
C157        C162   1.413       .  A
C158        C159   1.399       .  A
C158        C163   1.453       .  S
C159        C976   1.420   1_455  A
C159        C166   1.452   1_455  S
C160        C161   1.417       .  A
C160        C975   1.420       .  A
C161        C978   1.421       .  A
C161        C164   1.448       .  S
C162        C977   1.421   1_455  A
C162        C981   1.449       .  S
C163        N170   1.157       .  T
C164        N169   1.157       .  T
C165        C978   1.449       .  S
C165        N167   1.157       .  T
C166        N168   1.157       .  T
C171        C172   1.410       .  A
C171        C176   1.408       .  A
C172        C173   1.405       .  A
C172        C177   1.450       .  S
C173        C174   1.413       .  A
C173        C180   1.449       .  S
C174        C175   1.421       .  A
C175        C176   1.412       .  A
C175        C178   1.451       .  S
C176        C179   1.452       .  S
C177        N184   1.157       .  T
C178        N183   1.157       .  T
C179        N181   1.157       .  T
C180        N182   1.156       .  T
C185        C186   1.414       .  A
C185       C1006   1.412   1_455  A
C186        C187   1.417   1_455  A
C186        C191   1.451       .  S
C187       C1004   1.412       .  A
C187        C194   1.450   1_655  S
C188        C189   1.415       .  A
C188       C1003   1.412       .  A
C189        C190   1.417       .  A
C189        C192   1.450       .  S
C190       C1001   1.412       .  A
C190        C193   1.450       .  S
C191        N198   1.157       .  T
C192        N197   1.157       .  T
C193        N195   1.157       .  T
C194        N196   1.157       .  T
C199        C204   1.416       .  A
C199        C608   1.408       .  A
C200        C201   1.410       .  A
C200        C607   1.408   1_545  A
C200        C205   1.450       .  S
C201        C202   1.415       .  A
C201        C208   1.452       .  S
C202        C611   1.408       .  A
C203        C204   1.412       .  A
C203        C610   1.408       .  A
C203        C206   1.450       .  S
C204        C207   1.450       .  S
C205        N212   1.157       .  T
C206        N211   1.157       .  T
C207        N209   1.157       .  T
C208        N210   1.157       .  T
C213        C214   1.422       .  A
C213        C218   1.415       .  A
C214        C623   1.408   1_545  A
C214        C219   1.455       .  S
C215        C216   1.409       .  A
C215        C622   1.408       .  A
C215        C222   1.452       .  S
C216        C217   1.413       .  A
C217        C626   1.421       .  A
C217        C220   1.449       .  S
C218        C625   1.421   1_545  A
C218        C221   1.449       .  S
C219        N226   1.158       .  T
C220        N225   1.157       .  T
C221        N223   1.157       .  T
C222        N224   1.157       .  T
C227        C228   1.405       .  A
C227        C232   1.408       .  A
C228        C229   1.403       .  A
C228        C233   1.454       .  S
C229        C230   1.424       .  A
C229        C236   1.449       .  S
C230        C231   1.426       .  A
C231        C232   1.418       .  A
C231        C234   1.450       .  S
C232        C235   1.451       .  S
C233        N240   1.157       .  T
C234        N239   1.157       .  T
C235        N237   1.157       .  T
C236        N238   1.156       .  T
C241        C242   1.409       .  A
C241        C246   1.408       .  A
C242        C243   1.401       .  A
C242        C247   1.454       .  S
C243        C244   1.412       .  A
C243        C250   1.452       .  S
C244        C245   1.408       .  A
C245        C246   1.408       .  A
C245        C248   1.446       .  S
C246        C249   1.447       .  S
C247        N254   1.157       .  T
C248        N253   1.156       .  T
C249        N251   1.156       .  T
C250        N252   1.157       .  T
C255        C260   1.412       .  A
C255       C1072   1.412   1_455  A
C256        C257   1.413       .  A
C256       C1071   1.412       .  A
C256        C261   1.452       .  S
C257        C258   1.420       .  A
C257        C264   1.451       .  S
C258        C259   1.419       .  A
C259       C1076   1.413       .  A
C259        C262   1.451       .  S
C260       C1075   1.413   1_455  A
C260        C263   1.451       .  S
C261        N268   1.157       .  T
C262        N267   1.157       .  T
C263        N265   1.157       .  T
C264        N266   1.158       .  T
C269        C270   1.424       .  A
C269        C274   1.418       .  A
C270        C271   1.422       .  A
C270        C275   1.451       .  S
C271        C272   1.420       .  A
C271        C278   1.450       .  S
C272        C273   1.414       .  A
C273        C274   1.404       .  A
C273        C276   1.449   1_554  S
C274        C277   1.450   1_554  S
C275        N282   1.157       .  T
C276        N281   1.155       .  T
C277        N279   1.157       .  T
C278        N280   1.158       .  T
C283        C284   1.416       .  A
C283       C1104   1.423       .  A
C284        C285   1.416       .  A
C284        C289   1.450       .  S
C285        C286   1.413       .  A
C285        C292   1.450       .  S
C286       C1103   1.403       .  A
C287        C288   1.408       .  A
C287       C1102   1.403   1_455  A
C287        C290   1.454       .  S
C288       C1099   1.423       .  A
C288        C291   1.447   1_556  S
C289        N296   1.157       .  T
C290        N295   1.157   1_556  T
C291        N293   1.157       .  T
C292        N294   1.157       .  T
C297        C298   1.411       .  A
C297        C302   1.411       .  A
C298        C299   1.409       .  A
C298        C303   1.451       .  S
C299        C300   1.414       .  A
C299        C306   1.451       .  S
C300        C301   1.415       .  A
C301        C302   1.409       .  A
C301        C304   1.450       .  S
C302        C305   1.452       .  S
C303        N310   1.157       .  T
C304        N309   1.157       .  T
C305        N307   1.157       .  T
C306        N308   1.157       .  T
C311        C312   1.418       .  A
C311        C316   1.419       .  A
C312        C313   1.418       .  A
C312        C317   1.449       .  S
C313        C314   1.415       .  A
C313        C320   1.450       .  S
C314        C315   1.414       .  A
C315        C316   1.415       .  A
C315        C318   1.447       .  S
C316        C319   1.453       .  S
C317        N324   1.157       .  T
C318        N323   1.156       .  T
C319        N321   1.158       .  T
C320        N322   1.157       .  T
C325        C326   1.406       .  A
C325        C330   1.415       .  A
C326        C735   1.400   1_545  A
C326        C331   1.448       .  S
C327        C328   1.417       .  A
C327        C734   1.400       .  A
C327        C334   1.455       .  S
C328        C329   1.415       .  A
C329        C738   1.424       .  A
C329        C332   1.447       .  S
C330        C737   1.424   1_545  A
C330        C333   1.448       .  S
C331        N338   1.155       .  T
C332        N337   1.157       .  T
C333        N335   1.157       .  T
C334        N336   1.157       .  T
C339        C344   1.421       .  A
C339        C748   1.414       .  A
C340        C341   1.415       .  A
C340        C747   1.414   1_545  A
C340        C345   1.450       .  S
C341        C342   1.413       .  A
C341        C348   1.449       .  S
C342        C751   1.403   1_545  A
C343        C344   1.405       .  A
C343        C750   1.403       .  A
C343        C346   1.454       .  S
C344        C347   1.446       .  S
C345        N352   1.157       .  T
C346        N351   1.157       .  T
C347        N349   1.155       .  T
C348        N350   1.157       .  T
C353        C354   1.420       .  A
C353        C358   1.417       .  A
C354        C355   1.424       .  A
C354        C359   1.450       .  S
C355        C356   1.421       .  A
C355        C362   1.450       .  S
C356        C357   1.408       .  A
C357        C358   1.400       .  A
C357        C360   1.453       .  S
C358        C361   1.444       .  S
C359        N366   1.157       .  T
C360        N365   1.157       .  T
C361        N363   1.156       .  T
C362        N364   1.158       .  T
C367        C368   1.418       .  A
C367        C372   1.420       .  A
C368        C369   1.419       .  A
C368        C373   1.450       .  S
C369        C370   1.417       .  A
C369        C376   1.451       .  S
C370        C371   1.417       .  A
C371        C372   1.415       .  A
C371        C374   1.452       .  S
C372        C375   1.453       .  S
C373        N380   1.157       .  T
C374        N379   1.158       .  T
C375        N377   1.157       .  T
C376        N378   1.157       .  T
C381        C382   1.421       .  A
C381        C386   1.416       .  A
C382        C383   1.403       .  A
C382        C387   1.451       .  S
C383        C384   1.412       .  A
C383        C390   1.453       .  S
C384        C385   1.418       .  A
C385        C386   1.410       .  A
C385        C388   1.451       .  S
C386        C389   1.453       .  S
C387        N394   1.157       .  T
C388        N393   1.157       .  T
C389        N391   1.157       .  T
C390        N392   1.157       .  T
C395        C396   1.423       .  A
C395        C400   1.422       .  A
C396        C397   1.414       .  A
C396        C401   1.451       .  S
C397        C398   1.408       .  A
C397        C404   1.449       .  S
C398        C399   1.408       .  A
C399        C400   1.409       .  A
C399        C402   1.454       .  S
C400        C403   1.448       .  S
C401        N408   1.157       .  T
C402        N407   1.157       .  T
C403        N405   1.156       .  T
C404        N406   1.156       .  T
O409       Ni415   1.957       .  S
O409        C430   1.277       .  A
O410       Ni433   1.896       .  S
O410        C419   1.264       .  A
O411       Ni415   1.941       .  S
O411       Ni433   1.913       .  S
O411       Ni427   1.924       .  S
O411        H434   0.966       .  S
C412        O429   1.276       .  A
C412        O421   1.275       .  A
C412        C792   1.487       .  S
O413       Ni432   1.918       .  S
O413        C419   1.271       .  A
O414       Ni432   1.933       .  S
O414        C416   1.274       .  A
Ni415       O418   1.959       .  S
Ni415       O420   1.898       .  S
C416        O426   1.270       .  A
C416        C775   1.508       .  S
O417       Ni433   1.880       .  S
O417        C423   1.265       .  A
O418        C423   1.280       .  A
C419        C747   1.493       .  S
O420        C422   1.266       .  A
O421       Ni432   1.915       .  S
C422        O428   1.274       .  A
C422        C806   1.482       .  S
C423        C736   1.493       .  S
H424        O425   0.966       .  S
O425       Ni433   1.889       .  S
O425       Ni427   1.879       .  S
O425       Ni432   1.917       .  S
O426       Ni427   1.919       .  S
Ni427       O431   1.894       .  S
Ni427       O429   1.902       .  S
O428       Ni433   1.936       .  S
C430        O431   1.263       .  A
C430        C761   1.508       .  S
O435       Ni441   1.949       .  S
O435        C456   1.275       .  A
O436       Ni459   1.923       .  S
O436       C1261   1.266   1_554  A
O437       Ni441   1.926       .  S
O437       Ni459   1.918       .  S
O437       Ni453   1.930   1_554  S
O437        H460   0.965       .  S
C438        O455   1.283       .  A
C438        O447   1.274       .  A
C438        C789   1.494       .  S
O439       Ni458   1.886       .  S
O439       C1261   1.267       .  A
O440       Ni458   1.928       .  S
O440        C442   1.273       .  A
Ni441       O444   1.944       .  S
Ni441       O446   1.902       .  S
C442        O452   1.271       .  A
C442        C722   1.502       .  S
O443       Ni459   1.898       .  S
O443        C449   1.271       .  A
O444        C449   1.281       .  A
C445       O1252   1.266   1_556  A
C445       O1255   1.267       .  A
C445        C691   1.496       .  S
O446        C448   1.266       .  A
O447       Ni458   1.901       .  S
C448        O454   1.270       .  A
C448        C705   1.476       .  S
C449        C663   1.488       .  S
H450        O451   0.966       .  S
O451       Ni459   1.912   1_556  S
O451       Ni453   1.869       .  S
O451       Ni458   1.904       .  S
O452       Ni453   1.926       .  S
Ni453       O457   1.898   1_556  S
Ni453       O455   1.924       .  S
O454       Ni459   1.917       .  S
C456        O457   1.264       .  A
C456        C677   1.511       .  S
O461       Ni467   1.955       .  S
O461        C482   1.275       .  A
O462       Ni485   1.884       .  S
O462        C471   1.266       .  A
O463       Ni467   1.932       .  S
O463       Ni485   1.906       .  S
O463       Ni479   1.920       .  S
O463        H486   0.966       .  S
C464        O481   1.277       .  A
C464        O473   1.276       .  A
C464        C652   1.469       .  S
O465       Ni484   1.935       .  S
O465        C471   1.275       .  A
O466       Ni484   1.928       .  S
O466        C468   1.273       .  A
Ni467       O470   1.954       .  S
Ni467       O472   1.897       .  S
C468        O478   1.271       .  A
C468        C719   1.509       .  S
O469       Ni485   1.893       .  S
O469        C475   1.267       .  A
O470        C475   1.281       .  A
C471        C750   1.477       .  S
O472        C474   1.266       .  A
O473       Ni484   1.923       .  S
C474        O480   1.276       .  A
C474        C635   1.479       .  S
C475        C621   1.499       .  S
H476        O477   0.967       .  S
O477       Ni485   1.884       .  S
O477       Ni479   1.879       .  S
O477       Ni484   1.910       .  S
O478       Ni479   1.926       .  S
Ni479       O483   1.881       .  S
Ni479       O481   1.906       .  S
O480       Ni485   1.937       .  S
C482        O483   1.263       .  A
C482        C764   1.500       .  S
O487       Ni493   1.957       .  S
O487        C508   1.278       .  A
O488       Ni511   1.893       .  S
O488        C497   1.266       .  A
O489       Ni493   1.923       .  S
O489       Ni511   1.907       .  S
O489       Ni505   1.916       .  S
O489        H512   0.965       .  S
C490        O507   1.274       .  A
C490        O499   1.277       .  A
C490        C582   1.491       .  S
O491       Ni510   1.941       .  S
O491        C497   1.274       .  A
O492       Ni510   1.916       .  S
O492        C494   1.272       .  A
Ni493       O496   1.943       .  S
Ni493       O498   1.922       .  S
C494        O504   1.276       .  A
C494        C666   1.501       .  S
O495       Ni511   1.912       .  S
O495        C501   1.272       .  A
O496        C501   1.278       .  A
C497        C610   1.481       .  S
O498        C500   1.272       .  A
O499       Ni510   1.939       .  S
C500        O506   1.271       .  A
C500        C638   1.508       .  S
C501        C733   1.487       .  S
H502        O503   0.966       .  S
O503       Ni511   1.895       .  S
O503       Ni505   1.889       .  S
O503       Ni510   1.912       .  S
O504       Ni505   1.939       .  S
Ni505       O509   1.905       .  S
Ni505       O507   1.901       .  S
O506       Ni511   1.920       .  S
C508        O509   1.267       .  A
C508        C596   1.494       .  S
O513       Ni519   1.955       .  S
O513        C534   1.276       .  A
O514       Ni537   1.912       .  S
O514        C523   1.268       .  A
O515       Ni519   1.931       .  S
O515       Ni537   1.923       .  S
O515       Ni531   1.921       .  S
O515        H538   0.966       .  S
C516        O533   1.270       .  A
C516        O525   1.273       .  A
C516        C708   1.484       .  S
O517       Ni536   1.922       .  S
O517        C523   1.267       .  A
O518       Ni536   1.912       .  S
O518        C520   1.269       .  A
Ni519       O522   1.955       .  S
Ni519       O524   1.911       .  S
C520        O530   1.272       .  A
C520        C565   1.478       .  S
O521       Ni537   1.902       .  S
O521        C527   1.267       .  A
O522        C527   1.278       .  A
C523        C607   1.482       .  S
O524        C526   1.270       .  A
O525       Ni536   1.923       .  S
C526        O532   1.275       .  A
C526        C803   1.504       .  S
C527        C624   1.487       .  S
H528        O529   0.965       .  S
O529       Ni537   1.904       .  S
O529       Ni531   1.900       .  S
O529       Ni536   1.925       .  S
O530       Ni531   1.927       .  S
Ni531       O535   1.899       .  S
Ni531       O533   1.904       .  S
O532       Ni537   1.938       .  S
C534        O535   1.263       .  A
C534        C593   1.494       .  S
O539       Ni545   1.960       .  S
O539        C560   1.274       .  A
O540       Ni563   1.886   1_556  S
O540        C549   1.262       .  A
O541       Ni545   1.946       .  S
O541       Ni563   1.907       .  S
O541       Ni557   1.915   1_554  S
O541        H564   0.966       .  S
C542        O559   1.273       .  A
C542        O551   1.273       .  A
C542        C649   1.464       .  S
O543       Ni562   1.917       .  S
O543        C549   1.269       .  A
O544       Ni562   1.921       .  S
O544        C546   1.273       .  A
Ni545       O548   1.954       .  S
Ni545       O550   1.892       .  S
C546        O556   1.273       .  A
C546        C778   1.504       .  S
O547       Ni563   1.888       .  S
O547        C553   1.268       .  A
O548        C553   1.281       .  A
C549        C694   1.481       .  S
O550        C552   1.263       .  A
O551       Ni562   1.915       .  S
C552        O558   1.272       .  A
C552        C579   1.473       .  S
C553        C568   1.495       .  S
H554        O555   0.966       .  S
O555       Ni563   1.902   1_556  S
O555       Ni557   1.884       .  S
O555       Ni562   1.920       .  S
O556       Ni557   1.931       .  S
Ni557       O561   1.868   1_556  S
Ni557       O559   1.907       .  S
O558       Ni563   1.934       .  S
C560        O561   1.258       .  A
C560        C680   1.509       .  S
C565        C566   1.405       .  A
C565        C570   1.413       .  A
C566        C567   1.399       .  A
C566        C571   1.453       .  S
C567       C1384   1.420   1_455  A
C567        C574   1.452   1_455  S
C568       C1383   1.420       .  A
C568        C569   1.417       .  A
C569       C1386   1.421       .  A
C569        C572   1.448       .  S
C570       C1385   1.421   1_455  A
C570       C1389   1.449       .  S
C571        N578   1.157       .  T
C572        N577   1.157       .  T
C573       C1386   1.449       .  S
C573        N575   1.157       .  T
C574        N576   1.157       .  T
C579        C580   1.410       .  A
C579        C584   1.408       .  A
C580        C581   1.405       .  A
C580        C585   1.450       .  S
C581        C582   1.413       .  A
C581        C588   1.449       .  S
C582        C583   1.421       .  A
C583        C584   1.412       .  A
C583        C586   1.451       .  S
C584        C587   1.452       .  S
C585        N592   1.157       .  T
C586        N591   1.157       .  T
C587        N589   1.157       .  T
C588        N590   1.156       .  T
C593        C594   1.414       .  A
C593       C1414   1.412   1_455  A
C594        C595   1.417   1_455  A
C594        C599   1.451       .  S
C595       C1412   1.412       .  A
C595        C602   1.450   1_655  S
C596       C1411   1.412       .  A
C596        C597   1.415       .  A
C597        C598   1.417       .  A
C597        C600   1.450       .  S
C598       C1409   1.412       .  A
C598        C601   1.450       .  S
C599        N606   1.157       .  T
C600        N605   1.157       .  T
C601        N603   1.157       .  T
C602        N604   1.157       .  T
C607        C612   1.416       .  A
C608        C609   1.410       .  A
C608        C613   1.450       .  S
C609        C610   1.415       .  A
C609        C616   1.452       .  S
C611        C612   1.412   1_545  A
C611        C614   1.450   1_545  S
C612        C615   1.450       .  S
C613        N620   1.157       .  T
C614        N619   1.157       .  T
C615        N617   1.157       .  T
C616        N618   1.157       .  T
C621        C622   1.422       .  A
C621        C626   1.415       .  A
C622        C627   1.455       .  S
C623        C624   1.409       .  A
C623        C630   1.452       .  S
C624        C625   1.413       .  A
C625        C628   1.449       .  S
C626        C629   1.449       .  S
C627        N634   1.158       .  T
C628        N633   1.157       .  T
C629        N631   1.157       .  T
C630        N632   1.157       .  T
C635        C636   1.405       .  A
C635        C640   1.408       .  A
C636        C637   1.403       .  A
C636        C641   1.454       .  S
C637        C638   1.424       .  A
C637        C644   1.449       .  S
C638        C639   1.426       .  A
C639        C640   1.418       .  A
C639        C642   1.450       .  S
C640        C643   1.451       .  S
C641        N648   1.157       .  T
C642        N647   1.157       .  T
C643        N645   1.157       .  T
C644        N646   1.156       .  T
C649        C650   1.409       .  A
C649        C654   1.408       .  A
C650        C651   1.401       .  A
C650        C655   1.454       .  S
C651        C652   1.412       .  A
C651        C658   1.452       .  S
C652        C653   1.408       .  A
C653        C654   1.408       .  A
C653        C656   1.446       .  S
C654        C657   1.447       .  S
C655        N662   1.157       .  T
C656        N661   1.156       .  T
C657        N659   1.156       .  T
C658        N660   1.157       .  T
C663       C1480   1.412   1_455  A
C663        C668   1.412       .  A
C664       C1479   1.412       .  A
C664        C665   1.413       .  A
C664        C669   1.452       .  S
C665        C666   1.420       .  A
C665        C672   1.451       .  S
C666        C667   1.419       .  A
C667       C1484   1.413       .  A
C667        C670   1.451       .  S
C668       C1483   1.413   1_455  A
C668        C671   1.451       .  S
C669        N676   1.157       .  T
C670        N675   1.157       .  T
C671        N673   1.157       .  T
C672        N674   1.158       .  T
C677        C678   1.424       .  A
C677        C682   1.418       .  A
C678        C679   1.422       .  A
C678        C683   1.451       .  S
C679        C680   1.420       .  A
C679        C686   1.450       .  S
C680        C681   1.414       .  A
C681        C682   1.404       .  A
C681        C684   1.449   1_554  S
C682        C685   1.450   1_554  S
C683        N690   1.157       .  T
C684        N689   1.155       .  T
C685        N687   1.157       .  T
C686        N688   1.158       .  T
C691        C692   1.416       .  A
C691       C1512   1.423       .  A
C692        C693   1.416       .  A
C692        C697   1.450       .  S
C693        C694   1.413       .  A
C693        C700   1.450       .  S
C694       C1511   1.403       .  A
C695       C1510   1.403   1_455  A
C695        C696   1.408       .  A
C695        C698   1.454       .  S
C696       C1507   1.423       .  A
C696        C699   1.447   1_556  S
C697        N704   1.157       .  T
C698        N703   1.157   1_556  T
C699        N701   1.157       .  T
C700        N702   1.157       .  T
C705        C706   1.411       .  A
C705        C710   1.411       .  A
C706        C707   1.409       .  A
C706        C711   1.451       .  S
C707        C708   1.414       .  A
C707        C714   1.451       .  S
C708        C709   1.415       .  A
C709        C710   1.409       .  A
C709        C712   1.450       .  S
C710        C713   1.452       .  S
C711        N718   1.157       .  T
C712        N717   1.157       .  T
C713        N715   1.157       .  T
C714        N716   1.157       .  T
C719        C720   1.418       .  A
C719        C724   1.419       .  A
C720        C721   1.418       .  A
C720        C725   1.449       .  S
C721        C722   1.415       .  A
C721        C728   1.450       .  S
C722        C723   1.414       .  A
C723        C724   1.415       .  A
C723        C726   1.447       .  S
C724        C727   1.453       .  S
C725        N732   1.157       .  T
C726        N731   1.156       .  T
C727        N729   1.158       .  T
C728        N730   1.157       .  T
C733        C734   1.406       .  A
C733        C738   1.415       .  A
C734        C739   1.448       .  S
C735        C736   1.417       .  A
C735        C742   1.455       .  S
C736        C737   1.415       .  A
C737        C740   1.447       .  S
C738        C741   1.448       .  S
C739        N746   1.155       .  T
C740        N745   1.157       .  T
C741        N743   1.157       .  T
C742        N744   1.157       .  T
C747        C752   1.421       .  A
C748        C749   1.415       .  A
C748        C753   1.450       .  S
C749        C750   1.413       .  A
C749        C756   1.449       .  S
C751        C752   1.405       .  A
C751        C754   1.454       .  S
C752        C755   1.446       .  S
C753        N760   1.157       .  T
C754        N759   1.157       .  T
C755        N757   1.155       .  T
C756        N758   1.157       .  T
C761        C762   1.420       .  A
C761        C766   1.417       .  A
C762        C763   1.424       .  A
C762        C767   1.450       .  S
C763        C764   1.421       .  A
C763        C770   1.450       .  S
C764        C765   1.408       .  A
C765        C766   1.400       .  A
C765        C768   1.453       .  S
C766        C769   1.444       .  S
C767        N774   1.157       .  T
C768        N773   1.157       .  T
C769        N771   1.156       .  T
C770        N772   1.158       .  T
C775        C776   1.418       .  A
C775        C780   1.420       .  A
C776        C777   1.419       .  A
C776        C781   1.450       .  S
C777        C778   1.417       .  A
C777        C784   1.451       .  S
C778        C779   1.417       .  A
C779        C780   1.415       .  A
C779        C782   1.452       .  S
C780        C783   1.453       .  S
C781        N788   1.157       .  T
C782        N787   1.158       .  T
C783        N785   1.157       .  T
C784        N786   1.157       .  T
C789        C790   1.421       .  A
C789        C794   1.416       .  A
C790        C791   1.403       .  A
C790        C795   1.451       .  S
C791        C792   1.412       .  A
C791        C798   1.453       .  S
C792        C793   1.418       .  A
C793        C794   1.410       .  A
C793        C796   1.451       .  S
C794        C797   1.453       .  S
C795        N802   1.157       .  T
C796        N801   1.157       .  T
C797        N799   1.157       .  T
C798        N800   1.157       .  T
C803        C804   1.423       .  A
C803        C808   1.422       .  A
C804        C805   1.414       .  A
C804        C809   1.451       .  S
C805        C806   1.408       .  A
C805        C812   1.449       .  S
C806        C807   1.408       .  A
C807        C808   1.409       .  A
C807        C810   1.454       .  S
C808        C811   1.448       .  S
C809        N816   1.157       .  T
C810        N815   1.157       .  T
C811        N813   1.156       .  T
C812        N814   1.156       .  T
O817       Ni823   1.957       .  S
O817        C838   1.277       .  A
O818       Ni841   1.896       .  S
O818        C827   1.264       .  A
O819       Ni823   1.941       .  S
O819       Ni841   1.913       .  S
O819       Ni835   1.924       .  S
O819        H842   0.966       .  S
C820        O837   1.276       .  A
C820        O829   1.275       .  A
C820       C1200   1.487       .  S
O821       Ni840   1.918       .  S
O821        C827   1.271       .  A
O822       Ni840   1.933       .  S
O822        C824   1.274       .  A
Ni823       O826   1.959       .  S
Ni823       O828   1.898       .  S
C824        O834   1.270       .  A
C824       C1183   1.508       .  S
O825       Ni841   1.880       .  S
O825        C831   1.265       .  A
O826        C831   1.280       .  A
C827       C1155   1.493       .  S
O828        C830   1.266       .  A
O829       Ni840   1.915       .  S
C830        O836   1.274       .  A
C830       C1214   1.482       .  S
C831       C1144   1.493       .  S
H832        O833   0.966       .  S
O833       Ni841   1.889       .  S
O833       Ni835   1.879       .  S
O833       Ni840   1.917       .  S
O834       Ni835   1.919       .  S
Ni835       O839   1.894       .  S
Ni835       O837   1.902       .  S
O836       Ni841   1.936       .  S
C838        O839   1.263       .  A
C838       C1169   1.508       .  S
O843       Ni849   1.949       .  S
O843        C864   1.275       .  A
O844       Ni867   1.923       .  S
O845       Ni849   1.926       .  S
O845       Ni867   1.918       .  S
O845       Ni861   1.930   1_554  S
O845        H868   0.965       .  S
C846        O863   1.283       .  A
C846        O855   1.274       .  A
C846       C1197   1.494       .  S
O847       Ni866   1.886       .  S
O848       Ni866   1.928       .  S
O848        C850   1.273       .  A
Ni849       O852   1.944       .  S
Ni849       O854   1.902       .  S
C850        O860   1.271       .  A
C850       C1130   1.502       .  S
O851       Ni867   1.898       .  S
O851        C857   1.271       .  A
O852        C857   1.281       .  A
C853       C1099   1.496       .  S
O854        C856   1.266       .  A
O855       Ni866   1.901       .  S
C856        O862   1.270       .  A
C856       C1113   1.476       .  S
C857       C1071   1.488       .  S
H858        O859   0.966       .  S
O859       Ni867   1.912   1_556  S
O859       Ni861   1.869       .  S
O859       Ni866   1.904       .  S
O860       Ni861   1.926       .  S
Ni861       O865   1.898   1_556  S
Ni861       O863   1.924       .  S
O862       Ni867   1.917       .  S
C864        O865   1.264       .  A
C864       C1085   1.511       .  S
O869       Ni875   1.955       .  S
O869        C890   1.275       .  A
O870       Ni893   1.884       .  S
O870        C879   1.266       .  A
O871       Ni875   1.932       .  S
O871       Ni893   1.906       .  S
O871       Ni887   1.920       .  S
O871        H894   0.966       .  S
C872        O889   1.277       .  A
C872        O881   1.276       .  A
C872       C1060   1.469       .  S
O873       Ni892   1.935       .  S
O873        C879   1.275       .  A
O874       Ni892   1.928       .  S
O874        C876   1.273       .  A
Ni875       O878   1.954       .  S
Ni875       O880   1.897       .  S
C876        O886   1.271       .  A
C876       C1127   1.509       .  S
O877       Ni893   1.893       .  S
O877        C883   1.267       .  A
O878        C883   1.281       .  A
C879       C1158   1.477       .  S
O880        C882   1.266       .  A
O881       Ni892   1.923       .  S
C882        O888   1.276       .  A
C882       C1043   1.479       .  S
C883       C1029   1.499       .  S
H884        O885   0.967       .  S
O885       Ni893   1.884       .  S
O885       Ni887   1.879       .  S
O885       Ni892   1.910       .  S
O886       Ni887   1.926       .  S
Ni887       O891   1.881       .  S
Ni887       O889   1.906       .  S
O888       Ni893   1.937       .  S
C890        O891   1.263       .  A
C890       C1172   1.500       .  S
O895       Ni901   1.957       .  S
O895        C916   1.278       .  A
O896       Ni919   1.893       .  S
O896        C905   1.266       .  A
O897       Ni901   1.923       .  S
O897       Ni919   1.907       .  S
O897       Ni913   1.916       .  S
O897        H920   0.965       .  S
C898        O915   1.274       .  A
C898        O907   1.277       .  A
C898        C990   1.491       .  S
O899       Ni918   1.941       .  S
O899        C905   1.274       .  A
O900       Ni918   1.916       .  S
O900        C902   1.272       .  A
Ni901       O904   1.943       .  S
Ni901       O906   1.922       .  S
C902        O912   1.276       .  A
C902       C1074   1.501       .  S
O903       Ni919   1.912       .  S
O903        C909   1.272       .  A
O904        C909   1.278       .  A
C905       C1018   1.481       .  S
O906        C908   1.272       .  A
O907       Ni918   1.939       .  S
C908        O914   1.271       .  A
C908       C1046   1.508       .  S
C909       C1141   1.487       .  S
H910        O911   0.966       .  S
O911       Ni919   1.895       .  S
O911       Ni913   1.889       .  S
O911       Ni918   1.912       .  S
O912       Ni913   1.939       .  S
Ni913       O917   1.905       .  S
Ni913       O915   1.901       .  S
O914       Ni919   1.920       .  S
C916        O917   1.267       .  A
C916       C1004   1.494       .  S
O921       Ni927   1.955       .  S
O921        C942   1.276       .  A
O922       Ni945   1.912       .  S
O922        C931   1.268       .  A
O923       Ni927   1.931       .  S
O923       Ni945   1.923       .  S
O923       Ni939   1.921       .  S
O923        H946   0.966       .  S
C924        O941   1.270       .  A
C924        O933   1.273       .  A
C924       C1116   1.484       .  S
O925       Ni944   1.922       .  S
O925        C931   1.267       .  A
O926       Ni944   1.912       .  S
O926        C928   1.269       .  A
Ni927       O930   1.955       .  S
Ni927       O932   1.911       .  S
C928        O938   1.272       .  A
C928        C973   1.478       .  S
O929       Ni945   1.902       .  S
O929        C935   1.267       .  A
O930        C935   1.278       .  A
C931       C1015   1.482       .  S
O932        C934   1.270       .  A
O933       Ni944   1.923       .  S
C934        O940   1.275       .  A
C934       C1211   1.504       .  S
C935       C1032   1.487       .  S
H936        O937   0.965       .  S
O937       Ni945   1.904       .  S
O937       Ni939   1.900       .  S
O937       Ni944   1.925       .  S
O938       Ni939   1.927       .  S
Ni939       O943   1.899       .  S
Ni939       O941   1.904       .  S
O940       Ni945   1.938       .  S
C942        O943   1.263       .  A
C942       C1001   1.494       .  S
O947       Ni953   1.960       .  S
O947        C968   1.274       .  A
O948       Ni971   1.886   1_556  S
O948        C957   1.262       .  A
O949       Ni953   1.946       .  S
O949       Ni971   1.907       .  S
O949       Ni965   1.915   1_554  S
O949        H972   0.966       .  S
C950        O967   1.273       .  A
C950        O959   1.273       .  A
C950       C1057   1.464       .  S
O951       Ni970   1.917       .  S
O951        C957   1.269       .  A
O952       Ni970   1.921       .  S
O952        C954   1.273       .  A
Ni953       O956   1.954       .  S
Ni953       O958   1.892       .  S
C954        O964   1.273       .  A
C954       C1186   1.504       .  S
O955       Ni971   1.888       .  S
O955        C961   1.268       .  A
O956        C961   1.281       .  A
C957       C1102   1.481       .  S
O958        C960   1.263       .  A
O959       Ni970   1.915       .  S
C960        O966   1.272       .  A
C960        C987   1.473       .  S
C961        C976   1.495       .  S
H962        O963   0.966       .  S
O963       Ni971   1.902   1_556  S
O963       Ni965   1.884       .  S
O963       Ni970   1.920       .  S
O964       Ni965   1.931       .  S
Ni965       O969   1.868   1_556  S
Ni965       O967   1.907       .  S
O966       Ni971   1.934       .  S
C968        O969   1.258       .  A
C968       C1088   1.509       .  S
C973        C974   1.405       .  A
C973        C978   1.413       .  A
C974        C975   1.399       .  A
C974        C979   1.453       .  S
C975        C982   1.452       .  S
C976        C977   1.417       .  A
C977        C980   1.448       .  S
C979        N986   1.157       .  T
C980        N985   1.157       .  T
C981        N983   1.157       .  T
C982        N984   1.157       .  T
C987        C988   1.410       .  A
C987        C992   1.408       .  A
C988        C989   1.405       .  A
C988        C993   1.450       .  S
C989        C990   1.413       .  A
C989        C996   1.449       .  S
C990        C991   1.421       .  A
C991        C992   1.412       .  A
C991        C994   1.451       .  S
C992        C995   1.452       .  S
C993       N1000   1.157       .  T
C994        N999   1.157       .  T
C995        N997   1.157       .  T
C996        N998   1.156       .  T
C1001      C1002   1.414       .  A
C1002      C1003   1.417       .  A
C1002      C1007   1.451       .  S
C1003      C1010   1.450       .  S
C1004      C1005   1.415       .  A
C1005      C1006   1.417       .  A
C1005      C1008   1.450       .  S
C1006      C1009   1.450       .  S
C1007      N1014   1.157       .  T
C1008      N1013   1.157       .  T
C1009      N1011   1.157       .  T
C1010      N1012   1.157       .  T
C1015      C1424   1.408       .  A
C1015      C1020   1.416       .  A
C1016      C1423   1.408   1_545  A
C1016      C1017   1.410       .  A
C1016      C1021   1.450       .  S
C1017      C1018   1.415       .  A
C1017      C1024   1.452       .  S
C1018      C1427   1.408       .  A
C1019      C1426   1.408       .  A
C1019      C1020   1.412       .  A
C1019      C1022   1.450       .  S
C1020      C1023   1.450       .  S
C1021      N1028   1.157       .  T
C1022      N1027   1.157       .  T
C1023      N1025   1.157       .  T
C1024      N1026   1.157       .  T
C1029      C1030   1.422       .  A
C1029      C1034   1.415       .  A
C1030      C1439   1.408   1_545  A
C1030      C1035   1.455       .  S
C1031      C1438   1.408       .  A
C1031      C1032   1.409       .  A
C1031      C1038   1.452       .  S
C1032      C1033   1.413       .  A
C1033      C1442   1.421       .  A
C1033      C1036   1.449       .  S
C1034      C1441   1.421   1_545  A
C1034      C1037   1.449       .  S
C1035      N1042   1.158       .  T
C1036      N1041   1.157       .  T
C1037      N1039   1.157       .  T
C1038      N1040   1.157       .  T
C1043      C1044   1.405       .  A
C1043      C1048   1.408       .  A
C1044      C1045   1.403       .  A
C1044      C1049   1.454       .  S
C1045      C1046   1.424       .  A
C1045      C1052   1.449       .  S
C1046      C1047   1.426       .  A
C1047      C1048   1.418       .  A
C1047      C1050   1.450       .  S
C1048      C1051   1.451       .  S
C1049      N1056   1.157       .  T
C1050      N1055   1.157       .  T
C1051      N1053   1.157       .  T
C1052      N1054   1.156       .  T
C1057      C1058   1.409       .  A
C1057      C1062   1.408       .  A
C1058      C1059   1.401       .  A
C1058      C1063   1.454       .  S
C1059      C1060   1.412       .  A
C1059      C1066   1.452       .  S
C1060      C1061   1.408       .  A
C1061      C1062   1.408       .  A
C1061      C1064   1.446       .  S
C1062      C1065   1.447       .  S
C1063      N1070   1.157       .  T
C1064      N1069   1.156       .  T
C1065      N1067   1.156       .  T
C1066      N1068   1.157       .  T
C1071      C1076   1.412       .  A
C1072      C1073   1.413       .  A
C1072      C1077   1.452       .  S
C1073      C1074   1.420       .  A
C1073      C1080   1.451       .  S
C1074      C1075   1.419       .  A
C1075      C1078   1.451       .  S
C1076      C1079   1.451       .  S
C1077      N1084   1.157       .  T
C1078      N1083   1.157       .  T
C1079      N1081   1.157       .  T
C1080      N1082   1.158       .  T
C1085      C1086   1.424       .  A
C1085      C1090   1.418       .  A
C1086      C1087   1.422       .  A
C1086      C1091   1.451       .  S
C1087      C1088   1.420       .  A
C1087      C1094   1.450       .  S
C1088      C1089   1.414       .  A
C1089      C1090   1.404       .  A
C1089      C1092   1.449   1_554  S
C1090      C1093   1.450   1_554  S
C1091      N1098   1.157       .  T
C1092      N1097   1.155       .  T
C1093      N1095   1.157       .  T
C1094      N1096   1.158       .  T
C1099      C1100   1.416   1_455  A
C1100      C1101   1.416       .  A
C1100      C1105   1.450       .  S
C1101      C1102   1.413       .  A
C1101      C1108   1.450       .  S
C1103      C1104   1.408       .  A
C1103      C1106   1.454       .  S
C1104      C1107   1.447   1_556  S
C1105      N1112   1.157       .  T
C1106      N1111   1.157   1_556  T
C1107      N1109   1.157       .  T
C1108      N1110   1.157       .  T
C1113      C1114   1.411       .  A
C1113      C1118   1.411       .  A
C1114      C1115   1.409       .  A
C1114      C1119   1.451       .  S
C1115      C1116   1.414       .  A
C1115      C1122   1.451       .  S
C1116      C1117   1.415       .  A
C1117      C1118   1.409       .  A
C1117      C1120   1.450       .  S
C1118      C1121   1.452       .  S
C1119      N1126   1.157       .  T
C1120      N1125   1.157       .  T
C1121      N1123   1.157       .  T
C1122      N1124   1.157       .  T
C1127      C1128   1.418       .  A
C1127      C1132   1.419       .  A
C1128      C1129   1.418       .  A
C1128      C1133   1.449       .  S
C1129      C1130   1.415       .  A
C1129      C1136   1.450       .  S
C1130      C1131   1.414       .  A
C1131      C1132   1.415       .  A
C1131      C1134   1.447       .  S
C1132      C1135   1.453       .  S
C1133      N1140   1.157       .  T
C1134      N1139   1.156       .  T
C1135      N1137   1.158       .  T
C1136      N1138   1.157       .  T
C1141      C1142   1.406       .  A
C1141      C1146   1.415       .  A
C1142      C1551   1.400   1_545  A
C1142      C1147   1.448       .  S
C1143      C1550   1.400       .  A
C1143      C1144   1.417       .  A
C1143      C1150   1.455       .  S
C1144      C1145   1.415       .  A
C1145      C1554   1.424       .  A
C1145      C1148   1.447       .  S
C1146      C1553   1.424   1_545  A
C1146      C1149   1.448       .  S
C1147      N1154   1.155       .  T
C1148      N1153   1.157       .  T
C1149      N1151   1.157       .  T
C1150      N1152   1.157       .  T
C1155      C1564   1.414       .  A
C1155      C1160   1.421       .  A
C1156      C1563   1.414   1_545  A
C1156      C1157   1.415       .  A
C1156      C1161   1.450       .  S
C1157      C1158   1.413       .  A
C1157      C1164   1.449       .  S
C1158      C1567   1.403   1_545  A
C1159      C1566   1.403       .  A
C1159      C1160   1.405       .  A
C1159      C1162   1.454       .  S
C1160      C1163   1.446       .  S
C1161      N1168   1.157       .  T
C1162      N1167   1.157       .  T
C1163      N1165   1.155       .  T
C1164      N1166   1.157       .  T
C1169      C1170   1.420       .  A
C1169      C1174   1.417       .  A
C1170      C1171   1.424       .  A
C1170      C1175   1.450       .  S
C1171      C1172   1.421       .  A
C1171      C1178   1.450       .  S
C1172      C1173   1.408       .  A
C1173      C1174   1.400       .  A
C1173      C1176   1.453       .  S
C1174      C1177   1.444       .  S
C1175      N1182   1.157       .  T
C1176      N1181   1.157       .  T
C1177      N1179   1.156       .  T
C1178      N1180   1.158       .  T
C1183      C1184   1.418       .  A
C1183      C1188   1.420       .  A
C1184      C1185   1.419       .  A
C1184      C1189   1.450       .  S
C1185      C1186   1.417       .  A
C1185      C1192   1.451       .  S
C1186      C1187   1.417       .  A
C1187      C1188   1.415       .  A
C1187      C1190   1.452       .  S
C1188      C1191   1.453       .  S
C1189      N1196   1.157       .  T
C1190      N1195   1.158       .  T
C1191      N1193   1.157       .  T
C1192      N1194   1.157       .  T
C1197      C1198   1.421       .  A
C1197      C1202   1.416       .  A
C1198      C1199   1.403       .  A
C1198      C1203   1.451       .  S
C1199      C1200   1.412       .  A
C1199      C1206   1.453       .  S
C1200      C1201   1.418       .  A
C1201      C1202   1.410       .  A
C1201      C1204   1.451       .  S
C1202      C1205   1.453       .  S
C1203      N1210   1.157       .  T
C1204      N1209   1.157       .  T
C1205      N1207   1.157       .  T
C1206      N1208   1.157       .  T
C1211      C1212   1.423       .  A
C1211      C1216   1.422       .  A
C1212      C1213   1.414       .  A
C1212      C1217   1.451       .  S
C1213      C1214   1.408       .  A
C1213      C1220   1.449       .  S
C1214      C1215   1.408       .  A
C1215      C1216   1.409       .  A
C1215      C1218   1.454       .  S
C1216      C1219   1.448       .  S
C1217      N1224   1.157       .  T
C1218      N1223   1.157       .  T
C1219      N1221   1.156       .  T
C1220      N1222   1.156       .  T
O1225     Ni1231   1.957       .  S
O1225      C1246   1.277       .  A
O1226     Ni1249   1.896       .  S
O1226      C1235   1.264       .  A
O1227     Ni1231   1.941       .  S
O1227     Ni1249   1.913       .  S
O1227     Ni1243   1.924       .  S
O1227      H1250   0.966       .  S
C1228      O1245   1.276       .  A
C1228      O1237   1.275       .  A
C1228      C1608   1.487       .  S
O1229     Ni1248   1.918       .  S
O1229      C1235   1.271       .  A
O1230     Ni1248   1.933       .  S
O1230      C1232   1.274       .  A
Ni1231     O1234   1.959       .  S
Ni1231     O1236   1.898       .  S
C1232      O1242   1.270       .  A
C1232      C1591   1.508       .  S
O1233     Ni1249   1.880       .  S
O1233      C1239   1.265       .  A
O1234      C1239   1.280       .  A
C1235      C1563   1.493       .  S
O1236      C1238   1.266       .  A
O1237     Ni1248   1.915       .  S
C1238      O1244   1.274       .  A
C1238      C1622   1.482       .  S
C1239      C1552   1.493       .  S
H1240      O1241   0.966       .  S
O1241     Ni1249   1.889       .  S
O1241     Ni1243   1.879       .  S
O1241     Ni1248   1.917       .  S
O1242     Ni1243   1.919       .  S
Ni1243     O1247   1.894       .  S
Ni1243     O1245   1.902       .  S
O1244     Ni1249   1.936       .  S
C1246      O1247   1.263       .  A
C1246      C1577   1.508       .  S
O1251     Ni1257   1.949       .  S
O1251      C1272   1.275       .  A
O1252     Ni1275   1.923       .  S
O1253     Ni1257   1.926       .  S
O1253     Ni1275   1.918       .  S
O1253     Ni1269   1.930   1_554  S
O1253      H1276   0.965       .  S
C1254      O1271   1.283       .  A
C1254      O1263   1.274       .  A
C1254      C1605   1.494       .  S
O1255     Ni1274   1.886       .  S
O1256     Ni1274   1.928       .  S
O1256      C1258   1.273       .  A
Ni1257     O1260   1.944       .  S
Ni1257     O1262   1.902       .  S
C1258      O1268   1.271       .  A
C1258      C1538   1.502       .  S
O1259     Ni1275   1.898       .  S
O1259      C1265   1.271       .  A
O1260      C1265   1.281       .  A
C1261      C1507   1.496       .  S
O1262      C1264   1.266       .  A
O1263     Ni1274   1.901       .  S
C1264      O1270   1.270       .  A
C1264      C1521   1.476       .  S
C1265      C1479   1.488       .  S
H1266      O1267   0.966       .  S
O1267     Ni1275   1.912   1_556  S
O1267     Ni1269   1.869       .  S
O1267     Ni1274   1.904       .  S
O1268     Ni1269   1.926       .  S
Ni1269     O1273   1.898   1_556  S
Ni1269     O1271   1.924       .  S
O1270     Ni1275   1.917       .  S
C1272      O1273   1.264       .  A
C1272      C1493   1.511       .  S
O1277     Ni1283   1.955       .  S
O1277      C1298   1.275       .  A
O1278     Ni1301   1.884       .  S
O1278      C1287   1.266       .  A
O1279     Ni1283   1.932       .  S
O1279     Ni1301   1.906       .  S
O1279     Ni1295   1.920       .  S
O1279      H1302   0.966       .  S
C1280      O1297   1.277       .  A
C1280      O1289   1.276       .  A
C1280      C1468   1.469       .  S
O1281     Ni1300   1.935       .  S
O1281      C1287   1.275       .  A
O1282     Ni1300   1.928       .  S
O1282      C1284   1.273       .  A
Ni1283     O1286   1.954       .  S
Ni1283     O1288   1.897       .  S
C1284      O1294   1.271       .  A
C1284      C1535   1.509       .  S
O1285     Ni1301   1.893       .  S
O1285      C1291   1.267       .  A
O1286      C1291   1.281       .  A
C1287      C1566   1.477       .  S
O1288      C1290   1.266       .  A
O1289     Ni1300   1.923       .  S
C1290      O1296   1.276       .  A
C1290      C1451   1.479       .  S
C1291      C1437   1.499       .  S
H1292      O1293   0.967       .  S
O1293     Ni1301   1.884       .  S
O1293     Ni1295   1.879       .  S
O1293     Ni1300   1.910       .  S
O1294     Ni1295   1.926       .  S
Ni1295     O1299   1.881       .  S
Ni1295     O1297   1.906       .  S
O1296     Ni1301   1.937       .  S
C1298      O1299   1.263       .  A
C1298      C1580   1.500       .  S
O1303     Ni1309   1.957       .  S
O1303      C1324   1.278       .  A
O1304     Ni1327   1.893       .  S
O1304      C1313   1.266       .  A
O1305     Ni1309   1.923       .  S
O1305     Ni1327   1.907       .  S
O1305     Ni1321   1.916       .  S
O1305      H1328   0.965       .  S
C1306      O1323   1.274       .  A
C1306      O1315   1.277       .  A
C1306      C1398   1.491       .  S
O1307     Ni1326   1.941       .  S
O1307      C1313   1.274       .  A
O1308     Ni1326   1.916       .  S
O1308      C1310   1.272       .  A
Ni1309     O1312   1.943       .  S
Ni1309     O1314   1.922       .  S
C1310      O1320   1.276       .  A
C1310      C1482   1.501       .  S
O1311     Ni1327   1.912       .  S
O1311      C1317   1.272       .  A
O1312      C1317   1.278       .  A
C1313      C1426   1.481       .  S
O1314      C1316   1.272       .  A
O1315     Ni1326   1.939       .  S
C1316      O1322   1.271       .  A
C1316      C1454   1.508       .  S
C1317      C1549   1.487       .  S
H1318      O1319   0.966       .  S
O1319     Ni1327   1.895       .  S
O1319     Ni1321   1.889       .  S
O1319     Ni1326   1.912       .  S
O1320     Ni1321   1.939       .  S
Ni1321     O1325   1.905       .  S
Ni1321     O1323   1.901       .  S
O1322     Ni1327   1.920       .  S
C1324      O1325   1.267       .  A
C1324      C1412   1.494       .  S
O1329     Ni1335   1.955       .  S
O1329      C1350   1.276       .  A
O1330     Ni1353   1.912       .  S
O1330      C1339   1.268       .  A
O1331     Ni1335   1.931       .  S
O1331     Ni1353   1.923       .  S
O1331     Ni1347   1.921       .  S
O1331      H1354   0.966       .  S
C1332      O1349   1.270       .  A
C1332      O1341   1.273       .  A
C1332      C1524   1.484       .  S
O1333     Ni1352   1.922       .  S
O1333      C1339   1.267       .  A
O1334     Ni1352   1.912       .  S
O1334      C1336   1.269       .  A
Ni1335     O1338   1.955       .  S
Ni1335     O1340   1.911       .  S
C1336      O1346   1.272       .  A
C1336      C1381   1.478       .  S
O1337     Ni1353   1.902       .  S
O1337      C1343   1.267       .  A
O1338      C1343   1.278       .  A
C1339      C1423   1.482       .  S
O1340      C1342   1.270       .  A
O1341     Ni1352   1.923       .  S
C1342      O1348   1.275       .  A
C1342      C1619   1.504       .  S
C1343      C1440   1.487       .  S
H1344      O1345   0.965       .  S
O1345     Ni1353   1.904       .  S
O1345     Ni1347   1.900       .  S
O1345     Ni1352   1.925       .  S
O1346     Ni1347   1.927       .  S
Ni1347     O1351   1.899       .  S
Ni1347     O1349   1.904       .  S
O1348     Ni1353   1.938       .  S
C1350      O1351   1.263       .  A
C1350      C1409   1.494       .  S
O1355     Ni1361   1.960       .  S
O1355      C1376   1.274       .  A
O1356     Ni1379   1.886   1_556  S
O1356      C1365   1.262       .  A
O1357     Ni1361   1.946       .  S
O1357     Ni1379   1.907       .  S
O1357     Ni1373   1.915   1_554  S
O1357      H1380   0.966       .  S
C1358      O1375   1.273       .  A
C1358      O1367   1.273       .  A
C1358      C1465   1.464       .  S
O1359     Ni1378   1.917       .  S
O1359      C1365   1.269       .  A
O1360     Ni1378   1.921       .  S
O1360      C1362   1.273       .  A
Ni1361     O1364   1.954       .  S
Ni1361     O1366   1.892       .  S
C1362      O1372   1.273       .  A
C1362      C1594   1.504       .  S
O1363     Ni1379   1.888       .  S
O1363      C1369   1.268       .  A
O1364      C1369   1.281       .  A
C1365      C1510   1.481       .  S
O1366      C1368   1.263       .  A
O1367     Ni1378   1.915       .  S
C1368      O1374   1.272       .  A
C1368      C1395   1.473       .  S
C1369      C1384   1.495       .  S
H1370      O1371   0.966       .  S
O1371     Ni1379   1.902   1_556  S
O1371     Ni1373   1.884       .  S
O1371     Ni1378   1.920       .  S
O1372     Ni1373   1.931       .  S
Ni1373     O1377   1.868   1_556  S
Ni1373     O1375   1.907       .  S
O1374     Ni1379   1.934       .  S
C1376      O1377   1.258       .  A
C1376      C1496   1.509       .  S
C1381      C1382   1.405       .  A
C1381      C1386   1.413       .  A
C1382      C1383   1.399       .  A
C1382      C1387   1.453       .  S
C1383      C1390   1.452       .  S
C1384      C1385   1.417       .  A
C1385      C1388   1.448       .  S
C1387      N1394   1.157       .  T
C1388      N1393   1.157       .  T
C1389      N1391   1.157       .  T
C1390      N1392   1.157       .  T
C1395      C1396   1.410       .  A
C1395      C1400   1.408       .  A
C1396      C1397   1.405       .  A
C1396      C1401   1.450       .  S
C1397      C1398   1.413       .  A
C1397      C1404   1.449       .  S
C1398      C1399   1.421       .  A
C1399      C1400   1.412       .  A
C1399      C1402   1.451       .  S
C1400      C1403   1.452       .  S
C1401      N1408   1.157       .  T
C1402      N1407   1.157       .  T
C1403      N1405   1.157       .  T
C1404      N1406   1.156       .  T
C1409      C1410   1.414       .  A
C1410      C1411   1.417       .  A
C1410      C1415   1.451       .  S
C1411      C1418   1.450       .  S
C1412      C1413   1.415       .  A
C1413      C1414   1.417       .  A
C1413      C1416   1.450       .  S
C1414      C1417   1.450       .  S
C1415      N1422   1.157       .  T
C1416      N1421   1.157       .  T
C1417      N1419   1.157       .  T
C1418      N1420   1.157       .  T
C1423      C1428   1.416       .  A
C1424      C1425   1.410       .  A
C1424      C1429   1.450       .  S
C1425      C1426   1.415       .  A
C1425      C1432   1.452       .  S
C1427      C1428   1.412   1_545  A
C1427      C1430   1.450   1_545  S
C1428      C1431   1.450       .  S
C1429      N1436   1.157       .  T
C1430      N1435   1.157       .  T
C1431      N1433   1.157       .  T
C1432      N1434   1.157       .  T
C1437      C1438   1.422       .  A
C1437      C1442   1.415       .  A
C1438      C1443   1.455       .  S
C1439      C1440   1.409       .  A
C1439      C1446   1.452       .  S
C1440      C1441   1.413       .  A
C1441      C1444   1.449       .  S
C1442      C1445   1.449       .  S
C1443      N1450   1.158       .  T
C1444      N1449   1.157       .  T
C1445      N1447   1.157       .  T
C1446      N1448   1.157       .  T
C1451      C1452   1.405       .  A
C1451      C1456   1.408       .  A
C1452      C1453   1.403       .  A
C1452      C1457   1.454       .  S
C1453      C1454   1.424       .  A
C1453      C1460   1.449       .  S
C1454      C1455   1.426       .  A
C1455      C1456   1.418       .  A
C1455      C1458   1.450       .  S
C1456      C1459   1.451       .  S
C1457      N1464   1.157       .  T
C1458      N1463   1.157       .  T
C1459      N1461   1.157       .  T
C1460      N1462   1.156       .  T
C1465      C1466   1.409       .  A
C1465      C1470   1.408       .  A
C1466      C1467   1.401       .  A
C1466      C1471   1.454       .  S
C1467      C1468   1.412       .  A
C1467      C1474   1.452       .  S
C1468      C1469   1.408       .  A
C1469      C1470   1.408       .  A
C1469      C1472   1.446       .  S
C1470      C1473   1.447       .  S
C1471      N1478   1.157       .  T
C1472      N1477   1.156       .  T
C1473      N1475   1.156       .  T
C1474      N1476   1.157       .  T
C1479      C1484   1.412       .  A
C1480      C1481   1.413       .  A
C1480      C1485   1.452       .  S
C1481      C1482   1.420       .  A
C1481      C1488   1.451       .  S
C1482      C1483   1.419       .  A
C1483      C1486   1.451       .  S
C1484      C1487   1.451       .  S
C1485      N1492   1.157       .  T
C1486      N1491   1.157       .  T
C1487      N1489   1.157       .  T
C1488      N1490   1.158       .  T
C1493      C1494   1.424       .  A
C1493      C1498   1.418       .  A
C1494      C1495   1.422       .  A
C1494      C1499   1.451       .  S
C1495      C1496   1.420       .  A
C1495      C1502   1.450       .  S
C1496      C1497   1.414       .  A
C1497      C1498   1.404       .  A
C1497      C1500   1.449   1_554  S
C1498      C1501   1.450   1_554  S
C1499      N1506   1.157       .  T
C1500      N1505   1.155       .  T
C1501      N1503   1.157       .  T
C1502      N1504   1.158       .  T
C1507      C1508   1.416   1_455  A
C1508      C1509   1.416       .  A
C1508      C1513   1.450       .  S
C1509      C1510   1.413       .  A
C1509      C1516   1.450       .  S
C1511      C1512   1.408       .  A
C1511      C1514   1.454       .  S
C1512      C1515   1.447   1_556  S
C1513      N1520   1.157       .  T
C1514      N1519   1.157   1_556  T
C1515      N1517   1.157       .  T
C1516      N1518   1.157       .  T
C1521      C1522   1.411       .  A
C1521      C1526   1.411       .  A
C1522      C1523   1.409       .  A
C1522      C1527   1.451       .  S
C1523      C1524   1.414       .  A
C1523      C1530   1.451       .  S
C1524      C1525   1.415       .  A
C1525      C1526   1.409       .  A
C1525      C1528   1.450       .  S
C1526      C1529   1.452       .  S
C1527      N1534   1.157       .  T
C1528      N1533   1.157       .  T
C1529      N1531   1.157       .  T
C1530      N1532   1.157       .  T
C1535      C1536   1.418       .  A
C1535      C1540   1.419       .  A
C1536      C1537   1.418       .  A
C1536      C1541   1.449       .  S
C1537      C1538   1.415       .  A
C1537      C1544   1.450       .  S
C1538      C1539   1.414       .  A
C1539      C1540   1.415       .  A
C1539      C1542   1.447       .  S
C1540      C1543   1.453       .  S
C1541      N1548   1.157       .  T
C1542      N1547   1.156       .  T
C1543      N1545   1.158       .  T
C1544      N1546   1.157       .  T
C1549      C1550   1.406       .  A
C1549      C1554   1.415       .  A
C1550      C1555   1.448       .  S
C1551      C1552   1.417       .  A
C1551      C1558   1.455       .  S
C1552      C1553   1.415       .  A
C1553      C1556   1.447       .  S
C1554      C1557   1.448       .  S
C1555      N1562   1.155       .  T
C1556      N1561   1.157       .  T
C1557      N1559   1.157       .  T
C1558      N1560   1.157       .  T
C1563      C1568   1.421       .  A
C1564      C1565   1.415       .  A
C1564      C1569   1.450       .  S
C1565      C1566   1.413       .  A
C1565      C1572   1.449       .  S
C1567      C1568   1.405       .  A
C1567      C1570   1.454       .  S
C1568      C1571   1.446       .  S
C1569      N1576   1.157       .  T
C1570      N1575   1.157       .  T
C1571      N1573   1.155       .  T
C1572      N1574   1.157       .  T
C1577      C1578   1.420       .  A
C1577      C1582   1.417       .  A
C1578      C1579   1.424       .  A
C1578      C1583   1.450       .  S
C1579      C1580   1.421       .  A
C1579      C1586   1.450       .  S
C1580      C1581   1.408       .  A
C1581      C1582   1.400       .  A
C1581      C1584   1.453       .  S
C1582      C1585   1.444       .  S
C1583      N1590   1.157       .  T
C1584      N1589   1.157       .  T
C1585      N1587   1.156       .  T
C1586      N1588   1.158       .  T
C1591      C1592   1.418       .  A
C1591      C1596   1.420       .  A
C1592      C1593   1.419       .  A
C1592      C1597   1.450       .  S
C1593      C1594   1.417       .  A
C1593      C1600   1.451       .  S
C1594      C1595   1.417       .  A
C1595      C1596   1.415       .  A
C1595      C1598   1.452       .  S
C1596      C1599   1.453       .  S
C1597      N1604   1.157       .  T
C1598      N1603   1.158       .  T
C1599      N1601   1.157       .  T
C1600      N1602   1.157       .  T
C1605      C1606   1.421       .  A
C1605      C1610   1.416       .  A
C1606      C1607   1.403       .  A
C1606      C1611   1.451       .  S
C1607      C1608   1.412       .  A
C1607      C1614   1.453       .  S
C1608      C1609   1.418       .  A
C1609      C1610   1.410       .  A
C1609      C1612   1.451       .  S
C1610      C1613   1.453       .  S
C1611      N1618   1.157       .  T
C1612      N1617   1.157       .  T
C1613      N1615   1.157       .  T
C1614      N1616   1.157       .  T
C1619      C1620   1.423       .  A
C1619      C1624   1.422       .  A
C1620      C1621   1.414       .  A
C1620      C1625   1.451       .  S
C1621      C1622   1.408       .  A
C1621      C1628   1.449       .  S
C1622      C1623   1.408       .  A
C1623      C1624   1.409       .  A
C1623      C1626   1.454       .  S
C1624      C1627   1.448       .  S
C1625      N1632   1.157       .  T
C1626      N1631   1.157       .  T
C1627      N1629   1.156       .  T
C1628      N1630   1.156       .  T
