geometry optimzed in LAMMPS
_audit_creation_date              2020-11-30 
_audit_creation_method            'lammps2cif' 
_symmetry_space_group_name_H-M    'P1' 
_symmetry_Int_Tables_number       1 
_symmetry_cell_setting            triclinic 
loop_ 
_symmetry_equiv_pos_as_xyz 
  x,y,z 
_cell_length_a                    30.342928364744825 
_cell_length_b                    29.15196170685786 
_cell_length_c                    46.63062571097082 
_cell_angle_alpha                 89.75456244137641 
_cell_angle_beta                  89.48733433885792 
_cell_angle_gamma                 121.65961468259898 
loop_ 
_atom_site_label 
_atom_site_type_symbol 
_atom_site_fract_x 
_atom_site_fract_y 
_atom_site_fract_z 
_atom_site_charge 
O1          O  0.30977121  0.05342619  0.02870707    -0.71400
O2          O  0.25475161  0.45232824  0.96681652    -0.71620
O3          O  0.30707969  0.06014575  0.97088207    -0.71480
O4          O  0.26072320  0.44712017  0.02455428    -0.71490
O5          O  0.19156169  0.44971527  0.03319308    -0.71450
O6          O  0.23049327  0.04912091  0.97001366    -0.71470
O7          O  0.17991532  0.44222849  0.97594570    -0.71410
O8          O  0.23947212  0.05602544  0.02789816    -0.71600
V9          V  0.28187873  0.00320929  0.99769511     1.35240
V10         V  0.21167182  0.49942222  0.00161587     1.35170
C11         C  0.28206713  0.07005398  0.03936515     0.77840
C12         C  0.20696154  0.43000359  0.96102680     0.77890
C13         C  0.27631045  0.07173474  0.95992137     0.77760
C14         C  0.22100496  0.43266366  0.03982361     0.77720
C15         C  0.11070040  0.27737159  0.81137652     0.03510
C16         C  0.13547682  0.30573988  0.83616681    -0.12640
C17         C  0.10636380  0.30176285  0.86057218     0.01010
C18         C  0.05201686  0.26911836  0.85979964    -0.11170
C19         C  0.02606339  0.24215398  0.83468608     0.03500
C20         C  0.05632945  0.24556599  0.81072886    -0.10590
H21         H  0.17735534  0.33085571  0.83639870     0.09090
H22         H  0.03011134  0.26689585  0.87870420     0.06620
H23         H  0.03811100  0.22361750  0.79139227     0.06470
C24         C  0.39151610  0.19657146  0.80579909     0.03510
C25         C  0.36297098  0.18327067  0.83159450    -0.12640
C26         C  0.38478886  0.18154248  0.85769452     0.01010
C27         C  0.43689879  0.19597560  0.85794613    -0.11170
C28         C  0.46820631  0.21531070  0.83301533     0.03500
C29         C  0.44429474  0.21318008  0.80688043    -0.10590
H30         H  0.32365420  0.17463383  0.83149110     0.09090
H31         H  0.45297664  0.19190785  0.87770650     0.06620
H32         H  0.46704737  0.22616408  0.78729793     0.06470
O33         O  0.05555504  0.31403495  0.30263812    -0.71400
O34         O  0.45810883  0.27122047  0.36478496    -0.71620
O35         O  0.06065082  0.31604174  0.36036821    -0.71480
O36         O  0.45414608  0.27208910  0.30696095    -0.71490
O37         O  0.45157295  0.19692739  0.30076180    -0.71450
O38         O  0.03981620  0.23292623  0.36599751    -0.71470
O39         O  0.43806290  0.18870737  0.35823903    -0.71410
O40         O  0.05303144  0.23860341  0.30829198    -0.71600
V41         V  0.00690979  0.29208212  0.33373416     1.35240
V42         V  0.49583196  0.21547935  0.33335473     1.35170
C43         C  0.07082167  0.28283419  0.29511755     0.77840
C44         C  0.43084067  0.22166599  0.37167353     0.77890
C45         C  0.06603438  0.28176473  0.37380854     0.77760
C46         C  0.43835655  0.22968121  0.29276724     0.77720
C47         C  0.31720629  0.20566692  0.19292180     0.03510
C48         C  0.32090161  0.18092185  0.16815239    -0.12640
C49         C  0.29585389  0.18099881  0.14317034     0.01010
C50         C  0.26609555  0.20504629  0.14310258    -0.11170
C51         C  0.26222361  0.23054617  0.16777080     0.03500
C52         C  0.28847295  0.23088922  0.19260111    -0.10590
H53         H  0.34346002  0.16188308  0.16827254     0.09090
H54         H  0.24533182  0.20291867  0.12388567     0.06620
H55         H  0.28762462  0.25168552  0.21159981     0.06470
C56         C  0.17989322  0.28789049  0.19203122     0.03510
C57         C  0.20510438  0.25870547  0.19185616    -0.12640
C58         C  0.23242460  0.25821208  0.16733594     0.01010
C59         C  0.23243147  0.28580545  0.14252829    -0.11170
C60         C  0.20685578  0.31422662  0.14232103     0.03500
C61         C  0.18199768  0.31632856  0.16716030    -0.10590
H62         H  0.20312012  0.23604131  0.21079231     0.09090
H63         H  0.25366372  0.28681969  0.12349408     0.06620
H64         H  0.16549732  0.34146745  0.16718449     0.06470
O65         O  0.19719939  0.23881889  0.63620476    -0.71400
O66         O  0.25176868  0.19212127  0.69651184    -0.71620
O67         O  0.19162027  0.23394313  0.69465088    -0.71480
O68         O  0.25358133  0.19313729  0.63878422    -0.71490
O69         O  0.31769887  0.27608097  0.63444291    -0.71450
O70         O  0.26401479  0.30993792  0.70066472    -0.71470
O71         O  0.32361284  0.26902903  0.69176385    -0.71410
O72         O  0.26140566  0.32039657  0.64321843    -0.71600
V73         V  0.22445299  0.21586003  0.66661834     1.35240
V74         V  0.29050987  0.29252980  0.66757320     1.35170
C75         C  0.22255345  0.28835993  0.62879601     0.77840
C76         C  0.29861229  0.22359740  0.70385341     0.77890
C77         C  0.21797721  0.27617715  0.70897409     0.77760
C78         C  0.29366190  0.22789736  0.62551863     0.77720
C79         C  0.28482947  0.11828338  0.52262613     0.03510
C80         C  0.30729571  0.14415567  0.49651881    -0.12640
C81         C  0.30551883  0.11499016  0.47222954     0.01010
C82         C  0.27948194  0.05829567  0.47453777    -0.11170
C83         C  0.25340175  0.03095755  0.50009079     0.03500
C84         C  0.25718402  0.06173557  0.52422191    -0.10590
H85         H  0.32728903  0.18767637  0.49545539     0.09090
H86         H  0.28076942  0.03531551  0.45676238     0.06620
H87         H  0.23812770  0.04200306  0.54423025     0.06470
C88         C  0.19543809  0.38677563  0.52801889     0.03510
C89         C  0.17107961  0.35703490  0.50348263    -0.12640
C90         C  0.17070575  0.38290987  0.47807816     0.01010
C91         C  0.19633587  0.43971125  0.47757928    -0.11170
C92         C  0.22331081  0.47057757  0.50162088     0.03500
C93         C  0.22216000  0.44332953  0.52686587    -0.10590
H94         H  0.15441248  0.31385246  0.50398318     0.09090
H95         H  0.19524331  0.45997803  0.45833301     0.06620
H96         H  0.24351957  0.46588013  0.54547509     0.06470
C97         C  0.30612678  0.21150438  0.59843873     0.00220
C98         C  0.28708046  0.22140671  0.57340301    -0.11470
C99         C  0.27954764  0.19140488  0.54861463     0.02460
C100        C  0.29216769  0.15112239  0.54844904     0.00130
C101        C  0.31336885  0.14283157  0.57318215    -0.11590
C102        C  0.31989509  0.17227726  0.59815421     0.02340
H103        H  0.27362186  0.24926086  0.57397112     0.15320
H104        H  0.32382708  0.11251310  0.57316003     0.15320
C105        C  0.33857730  0.16009465  0.62368703     0.36970
C106        C  0.25466661  0.19958527  0.52455309     0.36880
N107        N  0.35355266  0.15049990  0.64420850    -0.43370
N108        N  0.23460698  0.20602568  0.50530726    -0.43370
C109        C  0.21305865  0.30958580  0.60216562     0.00220
C110        C  0.16351918  0.29856953  0.59522869    -0.11650
C111        C  0.15659401  0.32354534  0.57119752     0.02460
C112        C  0.19955457  0.35920131  0.55365041     0.00130
C113        C  0.24843563  0.36883801  0.56020593    -0.11590
C114        C  0.25562968  0.34471417  0.58404469     0.02340
H115        H  0.13080628  0.27224498  0.60906628     0.15320
H116        H  0.28133024  0.39551540  0.54650829     0.15320
C117        C  0.30755745  0.35654805  0.58894674     0.36970
C118        C  0.10587145  0.31441524  0.56581319     0.36880
N119        N  0.34935952  0.36644780  0.59248986    -0.43370
N120        N  0.06528213  0.30752025  0.56168823    -0.43370
C121        C  0.39435165  0.20161059  0.39626389     0.00220
C122        C  0.34646211  0.15332827  0.39340664    -0.11650
C123        C  0.31552989  0.12584658  0.41747704     0.02460
C124        C  0.33406095  0.14487155  0.44540137     0.00130
C125        C  0.38153950  0.19439608  0.44788866    -0.11590
C126        C  0.41056504  0.22351170  0.42372329     0.02340
H127        H  0.33352151  0.13661335  0.37222522     0.15320
H128        H  0.39722505  0.21016318  0.46882464     0.15320
C129        C  0.45804927  0.27456655  0.42786806     0.36970
C130        C  0.26483653  0.07906908  0.41258500     0.36880
N131        N  0.49560519  0.31589662  0.43126914    -0.43370
N132        N  0.22425890  0.04160564  0.40848740    -0.43370
C133        C  0.34744343  0.20960501  0.21841027     0.00220
C134        C  0.39017974  0.26009691  0.22497852    -0.11650
C135        C  0.42078250  0.26659628  0.24855739     0.02460
C136        C  0.40820414  0.22194339  0.26656325     0.00130
C137        C  0.36606853  0.17088111  0.25957128    -0.11590
C138        C  0.33557348  0.16446563  0.23562492     0.02340
H139        H  0.40005582  0.29453580  0.21133138     0.15320
H140        H  0.35625937  0.13642056  0.27314402     0.15320
C141        C  0.29146111  0.11178758  0.22957950     0.36970
C142        C  0.46615399  0.31936352  0.25300898     0.36880
N143        N  0.25597841  0.06962755  0.22470480    -0.43370
N144        N  0.00260573  0.36158135  0.25642676    -0.43370
C145        C  0.10348660  0.29353898  0.26949110     0.00220
C146        C  0.08103047  0.28952291  0.24280663    -0.11650
C147        C  0.10438863  0.28640241  0.21749082     0.02460
C148        C  0.15294792  0.29027064  0.21845506     0.00130
C149        C  0.17606074  0.29604630  0.24533911    -0.11590
C150        C  0.15111451  0.29623401  0.27074804     0.02340
H151        H  0.04309425  0.28470981  0.24192861     0.15320
H152        H  0.21329822  0.29939022  0.24661110     0.15320
C153        C  0.17427784  0.29759188  0.29788321     0.36970
C154        C  0.07528811  0.27457185  0.19134704     0.36880
N155        N  0.19272175  0.29819715  0.31960131    -0.43370
N156        N  0.05182662  0.26498857  0.17045705    -0.43370
C157        C  0.09864755  0.29939739  0.39954448     0.00220
C158        C  0.07510489  0.27596453  0.42598055    -0.11650
C159        C  0.09734895  0.30218373  0.45179663     0.02460
C160        C  0.14608842  0.35132381  0.45151624     0.00130
C161        C  0.17149050  0.37198740  0.42493817    -0.11590
C162        C  0.14773320  0.34738573  0.39915960     0.02340
H163        H  0.03664226  0.23996115  0.42635910     0.15320
H164        H  0.20934103  0.40874607  0.42415662     0.15320
C165        C  0.17343217  0.37356820  0.37249432     0.36970
C166        C  0.06642819  0.28047835  0.47764845     0.36880
N167        N  0.19389396  0.39489878  0.35117133    -0.43370
N168        N  0.04115733  0.26285382  0.49819434    -0.43370
C169        C  0.32411238  0.21105908  0.72719932     0.00220
C170        C  0.29476603  0.16627993  0.74538329    -0.11650
C171        C  0.31642370  0.15891173  0.77024286     0.02460
C172        C  0.36783021  0.19821003  0.77805120     0.00130
C173        C  0.39759387  0.24129399  0.75903227    -0.11590
C174        C  0.37719885  0.24700234  0.73355204     0.02340
H175        H  0.25458859  0.13744206  0.74050188     0.15320
H176        H  0.43705859  0.27186616  0.76426739     0.15320
C177        C  0.41245532  0.29076492  0.71462153     0.36970
C178        C  0.28534479  0.11007842  0.78684926     0.36880
N179        N  0.44090574  0.32568270  0.69949015    -0.43370
N180        N  0.26042229  0.07084081  0.80009582    -0.43370
C181        C  0.14162278  0.27917237  0.78623592     0.00220
C182        C  0.17065498  0.32705364  0.77005339    -0.11650
C183        C  0.19754129  0.32825269  0.74502254     0.02460
C184        C  0.19532575  0.28095220  0.73613393     0.00130
C185        C  0.16780259  0.23392927  0.75304751    -0.11590
C186        C  0.14130491  0.23273204  0.77787066     0.02340
H187        H  0.17108884  0.36296060  0.77654592     0.15320
H188        H  0.16672659  0.19757889  0.74670275     0.15320
C189        C  0.11441664  0.18346518  0.79462477     0.36970
C190        C  0.22440524  0.37713329  0.72805901     0.36880
N191        N  0.09295509  0.14412415  0.80814125    -0.43370
N192        N  0.24579246  0.41627791  0.71437949    -0.43370
C193        C  0.21415751  0.40180974  0.06636340     0.00220
C194        C  0.25873053  0.41814896  0.08261019    -0.11650
C195        C  0.25667391  0.39061835  0.10757478     0.02460
C196        C  0.20940605  0.34527351  0.11660134     0.00130
C197        C  0.16430199  0.32946438  0.10090307    -0.11590
C198        C  0.16635875  0.35750803  0.07582610     0.02340
H199        H  0.29547644  0.45305385  0.07585512     0.15320
H200        H  0.12778204  0.29467621  0.10797098     0.15320
C201        C  0.11986922  0.33868794  0.05949767     0.36970
C202        C  0.30329246  0.41040512  0.12401049     0.36880
N203        N  0.08268705  0.32352976  0.04628339    -0.43370
N204        N  0.34047582  0.42625495  0.13731645    -0.43370
C205        C  0.29664158  0.15142107  0.11778617     0.00220
C206        C  0.33628351  0.17727248  0.09693005    -0.11650
C207        C  0.33475869  0.15063447  0.07150318     0.02460
C208        C  0.29302325  0.09780575  0.06701369     0.00130
C209        C  0.25503891  0.07148212  0.08856589    -0.11590
C210        C  0.25656200  0.09770340  0.11377969     0.02340
H211        H  0.36741002  0.21859234  0.10015161     0.15320
H212        H  0.22293460  0.03061417  0.08522224     0.15320
C213        C  0.21570135  0.06932126  0.13491902     0.36970
C214        C  0.37444057  0.17882832  0.04981567     0.36880
N215        N  0.18305794  0.04677669  0.15191275    -0.43370
N216        N  0.40622492  0.20128061  0.03236721    -0.43370
C217        C  0.13234176  0.33377419  0.88655493     0.00220
C218        C  0.17563111  0.33441408  0.89784199    -0.11650
C219        C  0.20095360  0.36483198  0.92226818     0.02460
C220        C  0.18200605  0.39405876  0.93618997     0.00130
C221        C  0.13786123  0.39176506  0.92523549    -0.11590
C222        C  0.11446440  0.36414028  0.90025172     0.02340
H223        H  0.18965252  0.31108157  0.88757886     0.15320
H224        H  0.12290623  0.41442302  0.93532457     0.15320
C225        C  0.07471466  0.37126845  0.88812550     0.36970
C226        C  0.24501891  0.36407029  0.93296642     0.36880
N227        N  0.04312320  0.37730523  0.87840311    -0.43370
N228        N  0.28028180  0.36328868  0.94156345    -0.43370
C229        C  0.29455940  0.10799005  0.93464574     0.00220
C230        C  0.34228095  0.15678298  0.93639381    -0.11650
C231        C  0.37045865  0.18413804  0.91158226     0.02460
C232        C  0.35207826  0.16110421  0.88431875     0.00130
C233        C  0.30220405  0.11482202  0.88264439    -0.11590
C234        C  0.27316832  0.08884292  0.90742270     0.02340
H235        H  0.35872270  0.17224913  0.95728530     0.15320
H236        H  0.28681030  0.09694112  0.86197843     0.15320
C237        C  0.22311935  0.04063539  0.90404721     0.36970
C238        C  0.41800268  0.23545962  0.91486560     0.36880
N239        N  0.18270750  0.00275673  0.90043083    -0.43370
N240        N  0.45593924  0.27667422  0.91772693    -0.43370
O241        O  0.30977119  0.55342619  0.02870708    -0.71400
O242        O  0.25475160  0.95232821  0.96681653    -0.71620
O243        O  0.30707968  0.56014577  0.97088208    -0.71480
O244        O  0.26072320  0.94712016  0.02455428    -0.71490
O245        O  0.19156171  0.94971528  0.03319309    -0.71450
O246        O  0.23049325  0.54912093  0.97001367    -0.71470
O247        O  0.17991532  0.94222848  0.97594571    -0.71410
O248        O  0.23947209  0.55602543  0.02789816    -0.71600
V249        V  0.28187872  0.50320930  0.99769511     1.35240
V250        V  0.21167183  0.99942221  0.00161587     1.35170
C251        C  0.28206710  0.57005397  0.03936516     0.77840
C252        C  0.20696153  0.93000356  0.96102681     0.77890
C253        C  0.27631044  0.57173476  0.95992138     0.77760
C254        C  0.22100497  0.93266367  0.03982361     0.77720
C255        C  0.11070039  0.77737158  0.81137652     0.03510
C256        C  0.13547681  0.80573986  0.83616682    -0.12640
C257        C  0.10636378  0.80176284  0.86057218     0.01010
C258        C  0.05201685  0.76911835  0.85979965    -0.11170
C259        C  0.02606338  0.74215397  0.83468608     0.03500
C260        C  0.05632944  0.74556599  0.81072887    -0.10590
H261        H  0.17735532  0.83085569  0.83639871     0.09090
H262        H  0.03011133  0.76689583  0.87870421     0.06620
H263        H  0.03811099  0.72361751  0.79139227     0.06470
C264        C  0.39151609  0.69657144  0.80579909     0.03510
C265        C  0.36297096  0.68327065  0.83159451    -0.12640
C266        C  0.38478884  0.68154246  0.85769452     0.01010
C267        C  0.43689878  0.69597557  0.85794612    -0.11170
C268        C  0.46820629  0.71531067  0.83301533     0.03500
C269        C  0.44429473  0.71318005  0.80688043    -0.10590
H270        H  0.32365419  0.67463382  0.83149110     0.09090
H271        H  0.45297663  0.69190781  0.87770650     0.06620
H272        H  0.46704735  0.72616406  0.78729793     0.06470
O273        O  0.05555502  0.81403495  0.30263812    -0.71400
O274        O  0.45810885  0.77122048  0.36478497    -0.71620
O275        O  0.06065080  0.81604173  0.36036822    -0.71480
O276        O  0.45414609  0.77208911  0.30696095    -0.71490
O277        O  0.45157296  0.69692740  0.30076180    -0.71450
O278        O  0.03981618  0.73292623  0.36599751    -0.71470
O279        O  0.43806291  0.68870738  0.35823904    -0.71410
O280        O  0.05303143  0.73860340  0.30829199    -0.71600
V281        V  0.00690978  0.79208211  0.33373416     1.35240
V282        V  0.49583197  0.71547936  0.33335473     1.35170
C283        C  0.07082165  0.78283419  0.29511755     0.77840
C284        C  0.43084068  0.72166600  0.37167354     0.77890
C285        C  0.06603436  0.78176472  0.37380854     0.77760
C286        C  0.43835656  0.72968122  0.29276724     0.77720
C287        C  0.31720630  0.70566694  0.19292181     0.03510
C288        C  0.32090161  0.68092186  0.16815240    -0.12640
C289        C  0.29585388  0.68099882  0.14317035     0.01010
C290        C  0.26609555  0.70504630  0.14310259    -0.11170
C291        C  0.26222362  0.73054618  0.16777081     0.03500
C292        C  0.28847295  0.73088923  0.19260112    -0.10590
H293        H  0.34346002  0.66188309  0.16827254     0.09090
H294        H  0.24533181  0.70291867  0.12388568     0.06620
H295        H  0.28762463  0.75168554  0.21159982     0.06470
C296        C  0.17989322  0.78789050  0.19203123     0.03510
C297        C  0.20510439  0.75870548  0.19185617    -0.12640
C298        C  0.23242460  0.75821209  0.16733595     0.01010
C299        C  0.23243148  0.78580546  0.14252830    -0.11170
C300        C  0.20685579  0.81422664  0.14232104     0.03500
C301        C  0.18199769  0.81632858  0.16716031    -0.10590
H302        H  0.20312012  0.73604132  0.21079232     0.09090
H303        H  0.25366373  0.78681971  0.12349409     0.06620
H304        H  0.16549732  0.84146746  0.16718450     0.06470
O305        O  0.19719939  0.73881889  0.63620476    -0.71400
O306        O  0.25176868  0.69212127  0.69651184    -0.71620
O307        O  0.19162026  0.73394312  0.69465088    -0.71480
O308        O  0.25358133  0.69313729  0.63878422    -0.71490
O309        O  0.31769886  0.77608097  0.63444291    -0.71450
O310        O  0.26401478  0.80993792  0.70066472    -0.71470
O311        O  0.32361283  0.76902903  0.69176385    -0.71410
O312        O  0.26140565  0.82039656  0.64321843    -0.71600
V313        V  0.22445299  0.71586002  0.66661834     1.35240
V314        V  0.29050986  0.79252980  0.66757321     1.35170
C315        C  0.22255344  0.78835992  0.62879601     0.77840
C316        C  0.29861228  0.72359739  0.70385342     0.77890
C317        C  0.21797720  0.77617714  0.70897410     0.77760
C318        C  0.29366190  0.72789736  0.62551863     0.77720
C319        C  0.28482948  0.61828338  0.52262613     0.03510
C320        C  0.30729572  0.64415567  0.49651881    -0.12640
C321        C  0.30551884  0.61499016  0.47222954     0.01010
C322        C  0.27948195  0.55829567  0.47453777    -0.11170
C323        C  0.25340176  0.53095756  0.50009079     0.03500
C324        C  0.25718402  0.56173557  0.52422192    -0.10590
H325        H  0.32728904  0.68767638  0.49545539     0.09090
H326        H  0.28076943  0.53531552  0.45676238     0.06620
H327        H  0.23812771  0.54200306  0.54423025     0.06470
C328        C  0.19543809  0.88677563  0.52801889     0.03510
C329        C  0.17107960  0.85703490  0.50348263    -0.12640
C330        C  0.17070574  0.88290987  0.47807817     0.01010
C331        C  0.19633586  0.93971125  0.47757928    -0.11170
C332        C  0.22331080  0.97057757  0.50162088     0.03500
C333        C  0.22215999  0.94332953  0.52686587    -0.10590
H334        H  0.15441247  0.81385246  0.50398318     0.09090
H335        H  0.19524330  0.95997802  0.45833301     0.06620
H336        H  0.24351957  0.96588012  0.54547509     0.06470
C337        C  0.30612678  0.71150438  0.59843874     0.00220
C338        C  0.28708045  0.72140671  0.57340301    -0.11470
C339        C  0.27954763  0.69140487  0.54861463     0.02460
C340        C  0.29216769  0.65112239  0.54844904     0.00130
C341        C  0.31336886  0.64283158  0.57318216    -0.11590
C342        C  0.31989509  0.67227727  0.59815421     0.02340
H343        H  0.27362185  0.74926085  0.57397113     0.15320
H344        H  0.32382709  0.61251311  0.57316003     0.15320
C345        C  0.33857731  0.66009467  0.62368703     0.36970
C346        C  0.25466660  0.69958526  0.52455309     0.36880
N347        N  0.35355268  0.65049992  0.64420851    -0.43370
N348        N  0.23460697  0.70602567  0.50530726    -0.43370
C349        C  0.21305865  0.80958580  0.60216562     0.00220
C350        C  0.16351917  0.79856953  0.59522870    -0.11650
C351        C  0.15659401  0.82354534  0.57119753     0.02460
C352        C  0.19955456  0.85920131  0.55365041     0.00130
C353        C  0.24843562  0.86883801  0.56020593    -0.11590
C354        C  0.25562967  0.84471417  0.58404469     0.02340
H355        H  0.13080628  0.77224498  0.60906628     0.15320
H356        H  0.28133024  0.89551539  0.54650829     0.15320
C357        C  0.30755744  0.85654804  0.58894674     0.36970
C358        C  0.10587144  0.81441524  0.56581319     0.36880
N359        N  0.34935951  0.86644779  0.59248986    -0.43370
N360        N  0.06528212  0.80752025  0.56168823    -0.43370
C361        C  0.39435167  0.70161060  0.39626389     0.00220
C362        C  0.34646212  0.65332827  0.39340664    -0.11650
C363        C  0.31552991  0.62584659  0.41747704     0.02460
C364        C  0.33406096  0.64487156  0.44540137     0.00130
C365        C  0.38153951  0.69439608  0.44788866    -0.11590
C366        C  0.41056506  0.72351171  0.42372329     0.02340
H367        H  0.33352153  0.63661336  0.37222522     0.15320
H368        H  0.39722506  0.71016319  0.46882464     0.15320
C369        C  0.45804928  0.77456656  0.42786807     0.36970
C370        C  0.26483654  0.57906908  0.41258500     0.36880
N371        N  0.49560520  0.81589663  0.43126914    -0.43370
N372        N  0.22425892  0.54160565  0.40848740    -0.43370
C373        C  0.34744344  0.70960502  0.21841028     0.00220
C374        C  0.39017975  0.76009692  0.22497852    -0.11650
C375        C  0.42078251  0.76659629  0.24855739     0.02460
C376        C  0.40820415  0.72194340  0.26656325     0.00130
C377        C  0.36606854  0.67088112  0.25957129    -0.11590
C378        C  0.33557349  0.66446565  0.23562493     0.02340
H379        H  0.40005583  0.79453581  0.21133139     0.15320
H380        H  0.35625938  0.63642057  0.27314403     0.15320
C381        C  0.29146111  0.61178759  0.22957951     0.36970
C382        C  0.46615400  0.81936353  0.25300898     0.36880
N383        N  0.25597841  0.56962756  0.22470481    -0.43370
N384        N  0.00260572  0.86158135  0.25642677    -0.43370
C385        C  0.10348659  0.79353899  0.26949111     0.00220
C386        C  0.08103046  0.78952291  0.24280664    -0.11650
C387        C  0.10438863  0.78640242  0.21749083     0.02460
C388        C  0.15294792  0.79027065  0.21845507     0.00130
C389        C  0.17606074  0.79604631  0.24533912    -0.11590
C390        C  0.15111450  0.79623402  0.27074805     0.02340
H391        H  0.04309424  0.78470981  0.24192862     0.15320
H392        H  0.21329821  0.79939023  0.24661111     0.15320
C393        C  0.17427783  0.79759188  0.29788322     0.36970
C394        C  0.07528811  0.77457186  0.19134704     0.36880
N395        N  0.19272173  0.79819715  0.31960132    -0.43370
N396        N  0.05182663  0.76498858  0.17045705    -0.43370
C397        C  0.09864753  0.79939739  0.39954449     0.00220
C398        C  0.07510487  0.77596452  0.42598056    -0.11650
C399        C  0.09734894  0.80218372  0.45179663     0.02460
C400        C  0.14608841  0.85132380  0.45151624     0.00130
C401        C  0.17149048  0.87198739  0.42493818    -0.11590
C402        C  0.14773319  0.84738573  0.39915960     0.02340
H403        H  0.03664224  0.73996114  0.42635910     0.15320
H404        H  0.20934102  0.90874606  0.42415662     0.15320
C405        C  0.17343215  0.87356820  0.37249432     0.36970
C406        C  0.06642818  0.78047834  0.47764846     0.36880
N407        N  0.19389394  0.89489878  0.35117134    -0.43370
N408        N  0.04115733  0.76285381  0.49819435    -0.43370
C409        C  0.32411237  0.71105908  0.72719932     0.00220
C410        C  0.29476602  0.66627992  0.74538329    -0.11650
C411        C  0.31642369  0.65891172  0.77024287     0.02460
C412        C  0.36783020  0.69821001  0.77805120     0.00130
C413        C  0.39759386  0.74129399  0.75903228    -0.11590
C414        C  0.37719884  0.74700234  0.73355205     0.02340
H415        H  0.25458858  0.63744205  0.74050188     0.15320
H416        H  0.43705858  0.77186615  0.76426740     0.15320
C417        C  0.41245531  0.79076493  0.71462154     0.36970
C418        C  0.28534478  0.61007841  0.78684926     0.36880
N419        N  0.44090573  0.82568272  0.69949017    -0.43370
N420        N  0.26042228  0.57084079  0.80009582    -0.43370
C421        C  0.14162277  0.77917236  0.78623592     0.00220
C422        C  0.17065500  0.82705364  0.77005340    -0.11650
C423        C  0.19754131  0.82825269  0.74502256     0.02460
C424        C  0.19532573  0.78095219  0.73613393     0.00130
C425        C  0.16780255  0.73392925  0.75304750    -0.11590
C426        C  0.14130487  0.73273202  0.77787065     0.02340
H427        H  0.17108888  0.86296061  0.77654595     0.15320
H428        H  0.16672652  0.69757887  0.74670274     0.15320
C429        C  0.11441657  0.68346514  0.79462475     0.36970
C430        C  0.22440529  0.87713331  0.72805904     0.36880
N431        N  0.09295500  0.64412411  0.80814122    -0.43370
N432        N  0.24579254  0.91627794  0.71437953    -0.43370
C433        C  0.21415752  0.90180975  0.06636341     0.00220
C434        C  0.25873054  0.91814897  0.08261020    -0.11650
C435        C  0.25667392  0.89061836  0.10757479     0.02460
C436        C  0.20940606  0.84527352  0.11660135     0.00130
C437        C  0.16430199  0.82946440  0.10090309    -0.11590
C438        C  0.16635876  0.85750805  0.07582611     0.02340
H439        H  0.29547645  0.95305385  0.07585512     0.15320
H440        H  0.12778205  0.79467625  0.10797100     0.15320
C441        C  0.11986923  0.83868797  0.05949769     0.36970
C442        C  0.30329247  0.91040513  0.12401049     0.36880
N443        N  0.08268705  0.82352979  0.04628341    -0.43370
N444        N  0.34047584  0.92625495  0.13731645    -0.43370
C445        C  0.29664156  0.65142107  0.11778618     0.00220
C446        C  0.33628352  0.67727245  0.09693008    -0.11650
C447        C  0.33475869  0.65063443  0.07150321     0.02460
C448        C  0.29302321  0.59780574  0.06701370     0.00130
C449        C  0.25503884  0.57148214  0.08856589    -0.11590
C450        C  0.25656194  0.59770342  0.11377968     0.02340
H451        H  0.36741006  0.71859229  0.10015164     0.15320
H452        H  0.22293450  0.53061420  0.08522223     0.15320
C453        C  0.21570126  0.56932130  0.13491900     0.36970
C454        C  0.37444061  0.67882826  0.04981571     0.36880
N455        N  0.18305783  0.54677676  0.15191272    -0.43370
N456        N  0.40622497  0.70128053  0.03236726    -0.43370
C457        C  0.13234174  0.83377416  0.88655494     0.00220
C458        C  0.17563109  0.83441405  0.89784200    -0.11650
C459        C  0.20095357  0.86483194  0.92226819     0.02460
C460        C  0.18200603  0.89405872  0.93618998     0.00130
C461        C  0.13786120  0.89176501  0.92523551    -0.11590
C462        C  0.11446438  0.86414025  0.90025173     0.02340
H463        H  0.18965250  0.81108155  0.88757886     0.15320
H464        H  0.12290620  0.91442298  0.93532459     0.15320
C465        C  0.07471464  0.87126843  0.88812552     0.36970
C466        C  0.24501889  0.86407025  0.93296643     0.36880
N467        N  0.04312318  0.87730521  0.87840313    -0.43370
N468        N  0.28028178  0.86328865  0.94156346    -0.43370
C469        C  0.29455939  0.60799008  0.93464575     0.00220
C470        C  0.34228097  0.65678298  0.93639382    -0.11650
C471        C  0.37045866  0.68413803  0.91158227     0.02460
C472        C  0.35207825  0.66110421  0.88431875     0.00130
C473        C  0.30220402  0.61482204  0.88264440    -0.11590
C474        C  0.27316829  0.58884296  0.90742271     0.02340
H475        H  0.35872273  0.67224912  0.95728530     0.15320
H476        H  0.28681025  0.59694115  0.86197845     0.15320
C477        C  0.22311930  0.54063546  0.90404723     0.36970
C478        C  0.41800271  0.73545960  0.91486560     0.36880
N479        N  0.18270742  0.50275684  0.90043086    -0.43370
N480        N  0.45593929  0.77667418  0.91772693    -0.43370
O481        O  0.80977121  0.05342619  0.02870707    -0.71400
O482        O  0.75475160  0.45232822  0.96681653    -0.71620
O483        O  0.80707969  0.06014575  0.97088207    -0.71480
O484        O  0.76072321  0.44712017  0.02455429    -0.71490
O485        O  0.69156172  0.44971529  0.03319309    -0.71450
O486        O  0.73049328  0.04912094  0.97001367    -0.71470
O487        O  0.67991533  0.44222851  0.97594571    -0.71410
O488        O  0.73947212  0.05602544  0.02789817    -0.71600
V489        V  0.78187872  0.00320929  0.99769511     1.35240
V490        V  0.71167184  0.49942223  0.00161588     1.35170
C491        C  0.78206714  0.07005398  0.03936516     0.77840
C492        C  0.70696153  0.43000359  0.96102681     0.77890
C493        C  0.77631046  0.07173476  0.95992138     0.77760
C494        C  0.72100498  0.43266367  0.03982361     0.77720
C495        C  0.61070039  0.27737160  0.81137652     0.03510
C496        C  0.63547681  0.30573988  0.83616682    -0.12640
C497        C  0.60636379  0.30176286  0.86057218     0.01010
C498        C  0.55201685  0.26911838  0.85979965    -0.11170
C499        C  0.52606338  0.24215399  0.83468608     0.03500
C500        C  0.55632944  0.24556601  0.81072887    -0.10590
H501        H  0.67735533  0.33085571  0.83639871     0.09090
H502        H  0.53011133  0.26689587  0.87870420     0.06620
H503        H  0.53811099  0.22361752  0.79139228     0.06470
C504        C  0.89151611  0.19657145  0.80579909     0.03510
C505        C  0.86297099  0.18327066  0.83159451    -0.12640
C506        C  0.88478887  0.18154247  0.85769452     0.01010
C507        C  0.93689880  0.19597558  0.85794612    -0.11170
C508        C  0.96820631  0.21531068  0.83301533     0.03500
C509        C  0.94429475  0.21318006  0.80688043    -0.10590
H510        H  0.82365421  0.17463382  0.83149110     0.09090
H511        H  0.95297665  0.19190783  0.87770650     0.06620
H512        H  0.96704737  0.22616407  0.78729792     0.06470
O513        O  0.55555504  0.31403495  0.30263812    -0.71400
O514        O  0.95810884  0.27122047  0.36478496    -0.71620
O515        O  0.56065081  0.31604173  0.36036822    -0.71480
O516        O  0.95414608  0.27208910  0.30696095    -0.71490
O517        O  0.95157295  0.19692739  0.30076180    -0.71450
O518        O  0.53981619  0.23292623  0.36599751    -0.71470
O519        O  0.93806290  0.18870737  0.35823904    -0.71410
O520        O  0.55303144  0.23860341  0.30829198    -0.71600
V521        V  0.50690979  0.29208212  0.33373416     1.35240
V522        V  0.99583196  0.21547935  0.33335473     1.35170
C523        C  0.57082167  0.28283419  0.29511755     0.77840
C524        C  0.93084067  0.22166600  0.37167353     0.77890
C525        C  0.56603438  0.28176472  0.37380854     0.77760
C526        C  0.93835654  0.22968121  0.29276724     0.77720
C527        C  0.81720628  0.20566691  0.19292181     0.03510
C528        C  0.82090159  0.18092184  0.16815240    -0.12640
C529        C  0.79585388  0.18099881  0.14317035     0.01010
C530        C  0.76609555  0.20504629  0.14310258    -0.11170
C531        C  0.76222361  0.23054617  0.16777080     0.03500
C532        C  0.78847294  0.23088921  0.19260111    -0.10590
H533        H  0.84346000  0.16188307  0.16827254     0.09090
H534        H  0.74533182  0.20291867  0.12388567     0.06620
H535        H  0.78762461  0.25168552  0.21159982     0.06470
C536        C  0.67989322  0.28789049  0.19203122     0.03510
C537        C  0.70510438  0.25870547  0.19185616    -0.12640
C538        C  0.73242460  0.25821208  0.16733594     0.01010
C539        C  0.73243148  0.28580545  0.14252829    -0.11170
C540        C  0.70685578  0.31422663  0.14232103     0.03500
C541        C  0.68199768  0.31632857  0.16716030    -0.10590
H542        H  0.70312012  0.23604131  0.21079231     0.09090
H543        H  0.75366373  0.28681970  0.12349408     0.06620
H544        H  0.66549733  0.34146746  0.16718450     0.06470
O545        O  0.69719939  0.23881889  0.63620477    -0.71400
O546        O  0.75176868  0.19212127  0.69651185    -0.71620
O547        O  0.69162027  0.23394312  0.69465089    -0.71480
O548        O  0.75358134  0.19313730  0.63878422    -0.71490
O549        O  0.81769887  0.27608097  0.63444292    -0.71450
O550        O  0.76401478  0.30993792  0.70066472    -0.71470
O551        O  0.82361284  0.26902903  0.69176385    -0.71410
O552        O  0.76140565  0.32039657  0.64321843    -0.71600
V553        V  0.72445299  0.21586003  0.66661834     1.35240
V554        V  0.79050986  0.29252980  0.66757321     1.35170
C555        C  0.72255345  0.28835992  0.62879601     0.77840
C556        C  0.79861229  0.22359740  0.70385342     0.77890
C557        C  0.71797720  0.27617714  0.70897410     0.77760
C558        C  0.79366191  0.22789737  0.62551864     0.77720
C559        C  0.78482949  0.11828339  0.52262613     0.03510
C560        C  0.80729573  0.14415568  0.49651881    -0.12640
C561        C  0.80551884  0.11499017  0.47222954     0.01010
C562        C  0.77948195  0.05829568  0.47453777    -0.11170
C563        C  0.75340176  0.03095757  0.50009080     0.03500
C564        C  0.75718403  0.06173558  0.52422192    -0.10590
H565        H  0.82728904  0.18767638  0.49545539     0.09090
H566        H  0.78076943  0.03531553  0.45676238     0.06620
H567        H  0.73812771  0.04200307  0.54423025     0.06470
C568        C  0.69543808  0.38677562  0.52801889     0.03510
C569        C  0.67107961  0.35703489  0.50348264    -0.12640
C570        C  0.67070575  0.38290987  0.47807817     0.01010
C571        C  0.69633587  0.43971124  0.47757928    -0.11170
C572        C  0.72331080  0.47057757  0.50162088     0.03500
C573        C  0.72215999  0.44332953  0.52686587    -0.10590
H574        H  0.65441247  0.31385246  0.50398318     0.09090
H575        H  0.69524330  0.45997802  0.45833302     0.06620
H576        H  0.74351956  0.46588012  0.54547509     0.06470
C577        C  0.80612679  0.21150439  0.59843874     0.00220
C578        C  0.78708047  0.22140672  0.57340301    -0.11470
C579        C  0.77954765  0.19140489  0.54861463     0.02460
C580        C  0.79216770  0.15112240  0.54844904     0.00130
C581        C  0.81336886  0.14283158  0.57318216    -0.11590
C582        C  0.81989510  0.17227727  0.59815421     0.02340
H583        H  0.77362187  0.24926087  0.57397113     0.15320
H584        H  0.82382709  0.11251311  0.57316004     0.15320
C585        C  0.83857731  0.16009467  0.62368704     0.36970
C586        C  0.75466662  0.19958528  0.52455309     0.36880
N587        N  0.85355267  0.15049991  0.64420851    -0.43370
N588        N  0.73460699  0.20602569  0.50530727    -0.43370
C589        C  0.71305865  0.30958580  0.60216562     0.00220
C590        C  0.66351917  0.29856952  0.59522870    -0.11650
C591        C  0.65659401  0.32354534  0.57119753     0.02460
C592        C  0.69955456  0.35920130  0.55365041     0.00130
C593        C  0.74843563  0.36883801  0.56020594    -0.11590
C594        C  0.75562967  0.34471417  0.58404469     0.02340
H595        H  0.63080628  0.27224497  0.60906628     0.15320
H596        H  0.78133024  0.39551540  0.54650830     0.15320
C597        C  0.80755745  0.35654806  0.58894675     0.36970
C598        C  0.60587144  0.31441522  0.56581319     0.36880
N599        N  0.84935952  0.36644781  0.59248987    -0.43370
N600        N  0.56528212  0.30752023  0.56168823    -0.43370
C601        C  0.89435166  0.20161060  0.39626389     0.00220
C602        C  0.84646212  0.15332827  0.39340664    -0.11650
C603        C  0.81552990  0.12584659  0.41747705     0.02460
C604        C  0.83406096  0.14487156  0.44540138     0.00130
C605        C  0.88153951  0.19439609  0.44788866    -0.11590
C606        C  0.91056505  0.22351171  0.42372329     0.02340
H607        H  0.83352152  0.13661336  0.37222522     0.15320
H608        H  0.89722506  0.21016319  0.46882464     0.15320
C609        C  0.95804928  0.27456656  0.42786806     0.36970
C610        C  0.76483654  0.07906909  0.41258500     0.36880
N611        N  0.99560519  0.31589663  0.43126914    -0.43370
N612        N  0.72425891  0.04160565  0.40848740    -0.43370
C613        C  0.84744342  0.20960500  0.21841028     0.00220
C614        C  0.89017973  0.26009690  0.22497852    -0.11650
C615        C  0.92078249  0.26659628  0.24855739     0.02460
C616        C  0.90820413  0.22194339  0.26656325     0.00130
C617        C  0.86606852  0.17088111  0.25957129    -0.11590
C618        C  0.83557347  0.16446563  0.23562493     0.02340
H619        H  0.90005581  0.29453579  0.21133139     0.15320
H620        H  0.85625937  0.13642056  0.27314403     0.15320
C621        C  0.79146110  0.11178757  0.22957951     0.36970
C622        C  0.96615399  0.31936352  0.25300898     0.36880
N623        N  0.75597840  0.06962754  0.22470480    -0.43370
N624        N  0.50260573  0.36158136  0.25642676    -0.43370
C625        C  0.60348661  0.29353899  0.26949111     0.00220
C626        C  0.58103047  0.28952292  0.24280663    -0.11650
C627        C  0.60438863  0.28640242  0.21749082     0.02460
C628        C  0.65294792  0.29027065  0.21845507     0.00130
C629        C  0.67606075  0.29604630  0.24533911    -0.11590
C630        C  0.65111451  0.29623401  0.27074805     0.02340
H631        H  0.54309426  0.28470981  0.24192861     0.15320
H632        H  0.71329822  0.29939022  0.24661110     0.15320
C633        C  0.67427784  0.29759188  0.29788322     0.36970
C634        C  0.57528811  0.27457186  0.19134704     0.36880
N635        N  0.69272175  0.29819715  0.31960132    -0.43370
N636        N  0.55182663  0.26498858  0.17045705    -0.43370
C637        C  0.59864755  0.29939739  0.39954449     0.00220
C638        C  0.57510488  0.27596452  0.42598056    -0.11650
C639        C  0.59734894  0.30218372  0.45179663     0.02460
C640        C  0.64608842  0.35132380  0.45151624     0.00130
C641        C  0.67149049  0.37198739  0.42493818    -0.11590
C642        C  0.64773320  0.34738573  0.39915960     0.02340
H643        H  0.53664225  0.23996114  0.42635910     0.15320
H644        H  0.70934102  0.40874606  0.42415662     0.15320
C645        C  0.67343216  0.37356820  0.37249432     0.36970
C646        C  0.56642819  0.28047834  0.47764846     0.36880
N647        N  0.69389395  0.39489878  0.35117134    -0.43370
N648        N  0.54115733  0.26285381  0.49819434    -0.43370
C649        C  0.82411238  0.21105909  0.72719932     0.00220
C650        C  0.79476603  0.16627993  0.74538329    -0.11650
C651        C  0.81642370  0.15891172  0.77024287     0.02460
C652        C  0.86783021  0.19821002  0.77805120     0.00130
C653        C  0.89759388  0.24129399  0.75903228    -0.11590
C654        C  0.87719885  0.24700234  0.73355205     0.02340
H655        H  0.75458860  0.13744206  0.74050188     0.15320
H656        H  0.93705860  0.27186616  0.76426740     0.15320
C657        C  0.91245532  0.29076493  0.71462154     0.36970
C658        C  0.78534479  0.11007841  0.78684927     0.36880
N659        N  0.94090574  0.32568271  0.69949016    -0.43370
N660        N  0.76042230  0.07084080  0.80009582    -0.43370
C661        C  0.64162278  0.27917237  0.78623593     0.00220
C662        C  0.67065501  0.32705365  0.77005341    -0.11650
C663        C  0.69754131  0.32825270  0.74502256     0.02460
C664        C  0.69532574  0.28095219  0.73613394     0.00130
C665        C  0.66780254  0.23392926  0.75304750    -0.11590
C666        C  0.64130487  0.23273203  0.77787065     0.02340
H667        H  0.67108889  0.36296062  0.77654595     0.15320
H668        H  0.66672651  0.19757887  0.74670274     0.15320
C669        C  0.61441657  0.18346515  0.79462475     0.36970
C670        C  0.72440530  0.37713331  0.72805904     0.36880
N671        N  0.59295499  0.14412412  0.80814122    -0.43370
N672        N  0.74579255  0.41627794  0.71437953    -0.43370
C673        C  0.71415753  0.40180975  0.06636341     0.00220
C674        C  0.75873053  0.41814899  0.08261021    -0.11650
C675        C  0.75667391  0.39061838  0.10757480     0.02460
C676        C  0.70940606  0.34527351  0.11660135     0.00130
C677        C  0.66430200  0.32946437  0.10090307    -0.11590
C678        C  0.66635877  0.35750802  0.07582609     0.02340
H679        H  0.79547644  0.45305389  0.07585514     0.15320
H680        H  0.62778206  0.29467619  0.10797097     0.15320
C681        C  0.61986925  0.33868792  0.05949766     0.36970
C682        C  0.80329245  0.41040516  0.12401051     0.36880
N683        N  0.58268708  0.32352972  0.04628337    -0.43370
N684        N  0.84047581  0.42625500  0.13731648    -0.43370
C685        C  0.79664158  0.15142107  0.11778617     0.00220
C686        C  0.83628348  0.17727251  0.09693004    -0.11650
C687        C  0.83475867  0.15063450  0.07150317     0.02460
C688        C  0.79302327  0.09780575  0.06701369     0.00130
C689        C  0.75503895  0.07148210  0.08856591    -0.11590
C690        C  0.75656204  0.09770338  0.11377970     0.02340
H691        H  0.86740996  0.21859239  0.10015158     0.15320
H692        H  0.72293467  0.03061413  0.08522227     0.15320
C693        C  0.71570142  0.06932121  0.13491905     0.36970
C694        C  0.87444052  0.17882838  0.04981564     0.36880
N695        N  0.68305804  0.04677663  0.15191279    -0.43370
N696        N  0.90622483  0.20128068  0.03236717    -0.43370
C697        C  0.63234175  0.33377419  0.88655494     0.00220
C698        C  0.67563110  0.33441408  0.89784200    -0.11650
C699        C  0.70095358  0.36483197  0.92226819     0.02460
C700        C  0.68200604  0.39405875  0.93618998     0.00130
C701        C  0.63786121  0.39176505  0.92523551    -0.11590
C702        C  0.61446439  0.36414028  0.90025173     0.02340
H703        H  0.68965250  0.31108157  0.88757887     0.15320
H704        H  0.62290622  0.41442301  0.93532458     0.15320
C705        C  0.57471465  0.37126846  0.88812552     0.36970
C706        C  0.74501889  0.36407027  0.93296643     0.36880
N707        N  0.54312319  0.37730524  0.87840313    -0.43370
N708        N  0.78028178  0.36328866  0.94156346    -0.43370
C709        C  0.79455942  0.10799008  0.93464575     0.00220
C710        C  0.84228098  0.15678298  0.93639382    -0.11650
C711        C  0.87045868  0.18413804  0.91158226     0.02460
C712        C  0.85207828  0.16110422  0.88431875     0.00130
C713        C  0.80220405  0.11482204  0.88264440    -0.11590
C714        C  0.77316832  0.08884295  0.90742271     0.02340
H715        H  0.85872274  0.17224913  0.95728530     0.15320
H716        H  0.78681029  0.09694115  0.86197844     0.15320
C717        C  0.72311934  0.04063544  0.90404723     0.36970
C718        C  0.91800272  0.23545961  0.91486560     0.36880
N719        N  0.68270747  0.00275681  0.90043085    -0.43370
N720        N  0.95593929  0.27667419  0.91772693    -0.43370
O721        O  0.80977123  0.55342620  0.02870707    -0.71400
O722        O  0.75475159  0.95232822  0.96681652    -0.71620
O723        O  0.80707970  0.56014576  0.97088207    -0.71480
O724        O  0.76072319  0.94712016  0.02455428    -0.71490
O725        O  0.69156170  0.94971528  0.03319308    -0.71450
O726        O  0.73049328  0.54912094  0.97001368    -0.71470
O727        O  0.67991532  0.94222851  0.97594570    -0.71410
O728        O  0.73947214  0.55602545  0.02789817    -0.71600
V729        V  0.78187874  0.50320930  0.99769511     1.35240
V730        V  0.71167183  0.99942223  0.00161587     1.35170
C731        C  0.78206715  0.57005399  0.03936516     0.77840
C732        C  0.70696152  0.93000358  0.96102681     0.77890
C733        C  0.77631047  0.57173476  0.95992138     0.77760
C734        C  0.72100496  0.93266366  0.03982361     0.77720
C735        C  0.61070038  0.77737158  0.81137652     0.03510
C736        C  0.63547680  0.80573987  0.83616682    -0.12640
C737        C  0.60636377  0.80176285  0.86057218     0.01010
C738        C  0.55201684  0.76911835  0.85979965    -0.11170
C739        C  0.52606337  0.74215397  0.83468608     0.03500
C740        C  0.55632943  0.74556598  0.81072887    -0.10590
H741        H  0.67735531  0.83085570  0.83639871     0.09090
H742        H  0.53011132  0.76689584  0.87870420     0.06620
H743        H  0.53811098  0.72361750  0.79139227     0.06470
C744        C  0.89151610  0.69657145  0.80579909     0.03510
C745        C  0.86297097  0.68327066  0.83159451    -0.12640
C746        C  0.88478885  0.68154247  0.85769452     0.01010
C747        C  0.93689879  0.69597558  0.85794612    -0.11170
C748        C  0.96820630  0.71531068  0.83301533     0.03500
C749        C  0.94429473  0.71318006  0.80688043    -0.10590
H750        H  0.82365420  0.67463383  0.83149110     0.09090
H751        H  0.95297664  0.69190782  0.87770650     0.06620
H752        H  0.96704736  0.72616407  0.78729792     0.06470
O753        O  0.55555505  0.81403496  0.30263812    -0.71400
O754        O  0.95810882  0.77122046  0.36478497    -0.71620
O755        O  0.56065083  0.81604174  0.36036822    -0.71480
O756        O  0.95414606  0.77208910  0.30696095    -0.71490
O757        O  0.95157293  0.69692738  0.30076180    -0.71450
O758        O  0.53981621  0.73292624  0.36599751    -0.71470
O759        O  0.93806289  0.68870737  0.35823904    -0.71410
O760        O  0.55303145  0.73860342  0.30829199    -0.71600
V761        V  0.50690980  0.79208213  0.33373416     1.35240
V762        V  0.99583195  0.71547934  0.33335473     1.35170
C763        C  0.57082168  0.78283420  0.29511755     0.77840
C764        C  0.93084065  0.72166599  0.37167354     0.77890
C765        C  0.56603439  0.78176473  0.37380854     0.77760
C766        C  0.93835653  0.72968121  0.29276724     0.77720
C767        C  0.81720627  0.70566692  0.19292181     0.03510
C768        C  0.82090159  0.68092185  0.16815240    -0.12640
C769        C  0.79585388  0.68099882  0.14317034     0.01010
C770        C  0.76609556  0.70504630  0.14310258    -0.11170
C771        C  0.76222361  0.73054617  0.16777080     0.03500
C772        C  0.78847293  0.73088922  0.19260111    -0.10590
H773        H  0.84346000  0.66188307  0.16827254     0.09090
H774        H  0.74533183  0.70291869  0.12388566     0.06620
H775        H  0.78762461  0.75168552  0.21159981     0.06470
C776        C  0.67989321  0.78789050  0.19203122     0.03510
C777        C  0.70510438  0.75870547  0.19185616    -0.12640
C778        C  0.73242459  0.75821208  0.16733594     0.01010
C779        C  0.73243147  0.78580545  0.14252829    -0.11170
C780        C  0.70685577  0.81422663  0.14232103     0.03500
C781        C  0.68199767  0.81632856  0.16716030    -0.10590
H782        H  0.70312011  0.73604131  0.21079231     0.09090
H783        H  0.75366372  0.78681970  0.12349408     0.06620
H784        H  0.66549731  0.84146745  0.16718449     0.06470
O785        O  0.69719938  0.73881889  0.63620476    -0.71400
O786        O  0.75176867  0.69212127  0.69651185    -0.71620
O787        O  0.69162026  0.73394312  0.69465089    -0.71480
O788        O  0.75358133  0.69313729  0.63878422    -0.71490
O789        O  0.81769886  0.77608097  0.63444292    -0.71450
O790        O  0.76401478  0.80993792  0.70066472    -0.71470
O791        O  0.82361283  0.76902903  0.69176385    -0.71410
O792        O  0.76140565  0.82039657  0.64321843    -0.71600
V793        V  0.72445298  0.71586003  0.66661834     1.35240
V794        V  0.79050986  0.79252980  0.66757321     1.35170
C795        C  0.72255344  0.78835993  0.62879601     0.77840
C796        C  0.79861228  0.72359739  0.70385342     0.77890
C797        C  0.71797720  0.77617714  0.70897410     0.77760
C798        C  0.79366189  0.72789736  0.62551864     0.77720
C799        C  0.78482947  0.61828337  0.52262613     0.03510
C800        C  0.80729571  0.64415567  0.49651881    -0.12640
C801        C  0.80551882  0.61499016  0.47222954     0.01010
C802        C  0.77948194  0.55829567  0.47453777    -0.11170
C803        C  0.75340174  0.53095755  0.50009080     0.03500
C804        C  0.75718401  0.56173557  0.52422192    -0.10590
H805        H  0.82728902  0.68767637  0.49545539     0.09090
H806        H  0.78076942  0.53531551  0.45676238     0.06620
H807        H  0.73812770  0.54200305  0.54423025     0.06470
C808        C  0.69543809  0.88677564  0.52801889     0.03510
C809        C  0.67107962  0.85703491  0.50348264    -0.12640
C810        C  0.67070576  0.88290988  0.47807817     0.01010
C811        C  0.69633588  0.93971126  0.47757928    -0.11170
C812        C  0.72331081  0.97057758  0.50162088     0.03500
C813        C  0.72216000  0.94332954  0.52686587    -0.10590
H814        H  0.65441248  0.81385247  0.50398319     0.09090
H815        H  0.69524331  0.95997804  0.45833302     0.06620
H816        H  0.74351957  0.96588013  0.54547509     0.06470
C817        C  0.80612677  0.71150438  0.59843874     0.00220
C818        C  0.78708044  0.72140670  0.57340301    -0.11470
C819        C  0.77954762  0.69140486  0.54861463     0.02460
C820        C  0.79216768  0.65112238  0.54844904     0.00130
C821        C  0.81336885  0.64283158  0.57318216    -0.11590
C822        C  0.81989509  0.67227727  0.59815421     0.02340
H823        H  0.77362183  0.74926084  0.57397113     0.15320
H824        H  0.82382709  0.61251311  0.57316004     0.15320
C825        C  0.83857732  0.66009468  0.62368703     0.36970
C826        C  0.75466658  0.69958525  0.52455309     0.36880
N827        N  0.85355269  0.65049993  0.64420851    -0.43370
N828        N  0.73460694  0.70602565  0.50530727    -0.43370
C829        C  0.71305865  0.80958580  0.60216562     0.00220
C830        C  0.66351917  0.79856954  0.59522870    -0.11650
C831        C  0.65659401  0.82354536  0.57119753     0.02460
C832        C  0.69955457  0.85920132  0.55365041     0.00130
C833        C  0.74843563  0.86883801  0.56020594    -0.11590
C834        C  0.75562967  0.84471417  0.58404469     0.02340
H835        H  0.63080628  0.77224499  0.60906629     0.15320
H836        H  0.78133024  0.89551540  0.54650830     0.15320
C837        C  0.80755744  0.85654804  0.58894675     0.36970
C838        C  0.60587145  0.81441525  0.56581320     0.36880
N839        N  0.84935951  0.86644778  0.59248986    -0.43370
N840        N  0.56528213  0.80752027  0.56168824    -0.43370
C841        C  0.89435164  0.70161059  0.39626389     0.00220
C842        C  0.84646210  0.65332826  0.39340664    -0.11650
C843        C  0.81552988  0.62584658  0.41747705     0.02460
C844        C  0.83406094  0.64487155  0.44540138     0.00130
C845        C  0.88153949  0.69439607  0.44788866    -0.11590
C846        C  0.91056503  0.72351170  0.42372329     0.02340
H847        H  0.83352150  0.63661335  0.37222522     0.15320
H848        H  0.89722504  0.71016318  0.46882464     0.15320
C849        C  0.95804926  0.77456655  0.42786807     0.36970
C850        C  0.76483652  0.57906907  0.41258500     0.36880
N851        N  0.99560518  0.81589662  0.43126914    -0.43370
N852        N  0.72425890  0.54160564  0.40848740    -0.43370
C853        C  0.84744341  0.70960501  0.21841028     0.00220
C854        C  0.89017972  0.76009690  0.22497852    -0.11650
C855        C  0.92078248  0.76659628  0.24855739     0.02460
C856        C  0.90820412  0.72194339  0.26656325     0.00130
C857        C  0.86606851  0.67088111  0.25957129    -0.11590
C858        C  0.83557346  0.66446563  0.23562493     0.02340
H859        H  0.90005580  0.79453579  0.21133139     0.15320
H860        H  0.85625936  0.63642056  0.27314403     0.15320
C861        C  0.79146109  0.61178757  0.22957951     0.36970
C862        C  0.96615398  0.81936352  0.25300898     0.36880
N863        N  0.75597839  0.56962754  0.22470480    -0.43370
N864        N  0.50260575  0.86158137  0.25642677    -0.43370
C865        C  0.60348661  0.79353900  0.26949111     0.00220
C866        C  0.58103047  0.78952292  0.24280663    -0.11650
C867        C  0.60438863  0.78640242  0.21749082     0.02460
C868        C  0.65294792  0.79027065  0.21845506     0.00130
C869        C  0.67606075  0.79604631  0.24533911    -0.11590
C870        C  0.65111452  0.79623402  0.27074805     0.02340
H871        H  0.54309426  0.78470981  0.24192862     0.15320
H872        H  0.71329822  0.79939023  0.24661109     0.15320
C873        C  0.67427786  0.79759190  0.29788321     0.36970
C874        C  0.57528810  0.77457185  0.19134704     0.36880
N875        N  0.69272177  0.79819717  0.31960131    -0.43370
N876        N  0.55182662  0.76498857  0.17045705    -0.43370
C877        C  0.59864756  0.79939740  0.39954449     0.00220
C878        C  0.57510489  0.77596453  0.42598056    -0.11650
C879        C  0.59734895  0.80218373  0.45179663     0.02460
C880        C  0.64608843  0.85132382  0.45151624     0.00130
C881        C  0.67149050  0.87198740  0.42493818    -0.11590
C882        C  0.64773321  0.84738574  0.39915960     0.02340
H883        H  0.53664226  0.73996115  0.42635910     0.15320
H884        H  0.70934104  0.90874607  0.42415662     0.15320
C885        C  0.67343218  0.87356821  0.37249432     0.36970
C886        C  0.56642820  0.78047836  0.47764846     0.36880
N887        N  0.69389397  0.89489879  0.35117134    -0.43370
N888        N  0.54115734  0.76285382  0.49819435    -0.43370
C889        C  0.82411237  0.71105908  0.72719932     0.00220
C890        C  0.79476602  0.66627993  0.74538329    -0.11650
C891        C  0.81642369  0.65891173  0.77024287     0.02460
C892        C  0.86783020  0.69821002  0.77805120     0.00130
C893        C  0.89759387  0.74129399  0.75903227    -0.11590
C894        C  0.87719884  0.74700234  0.73355205     0.02340
H895        H  0.75458858  0.63744206  0.74050188     0.15320
H896        H  0.93705859  0.77186615  0.76426740     0.15320
C897        C  0.91245531  0.79076492  0.71462154     0.36970
C898        C  0.78534478  0.61007842  0.78684927     0.36880
N899        N  0.94090573  0.82568270  0.69949016    -0.43370
N900        N  0.76042229  0.57084080  0.80009583    -0.43370
C901        C  0.64162277  0.77917236  0.78623593     0.00220
C902        C  0.67065497  0.82705364  0.77005340    -0.11650
C903        C  0.69754128  0.82825269  0.74502255     0.02460
C904        C  0.69532574  0.78095219  0.73613394     0.00130
C905        C  0.66780257  0.73392926  0.75304751    -0.11590
C906        C  0.64130489  0.73273203  0.77787066     0.02340
H907        H  0.67108884  0.86296060  0.77654594     0.15320
H908        H  0.66672656  0.69757888  0.74670275     0.15320
C909        C  0.61441661  0.68346516  0.79462477     0.36970
C910        C  0.72440525  0.87713330  0.72805902     0.36880
N911        N  0.59295505  0.64412413  0.80814124    -0.43370
N912        N  0.74579248  0.91627792  0.71437951    -0.43370
C913        C  0.71415751  0.90180974  0.06636340     0.00220
C914        C  0.75873051  0.91814899  0.08261021    -0.11650
C915        C  0.75667389  0.89061838  0.10757479     0.02460
C916        C  0.70940604  0.84527351  0.11660134     0.00130
C917        C  0.66430198  0.82946436  0.10090306    -0.11590
C918        C  0.66635875  0.85750801  0.07582609     0.02340
H919        H  0.79547641  0.95305390  0.07585514     0.15320
H920        H  0.62778205  0.79467617  0.10797096     0.15320
C921        C  0.61986923  0.83868790  0.05949765     0.36970
C922        C  0.80329243  0.91040517  0.12401051     0.36880
N923        N  0.58268707  0.82352970  0.04628336    -0.43370
N924        N  0.84047578  0.92625502  0.13731649    -0.43370
C925        C  0.79664159  0.65142109  0.11778617     0.00220
C926        C  0.83628347  0.67727254  0.09693003    -0.11650
C927        C  0.83475866  0.65063453  0.07150316     0.02460
C928        C  0.79302329  0.59780576  0.06701370     0.00130
C929        C  0.75503900  0.57148210  0.08856592    -0.11590
C930        C  0.75656208  0.59770338  0.11377971     0.02340
H931        H  0.86740993  0.71859243  0.10015157     0.15320
H932        H  0.72293474  0.53061411  0.08522229     0.15320
C933        C  0.71570148  0.56932119  0.13491906     0.36970
C934        C  0.87444049  0.67882842  0.04981562     0.36880
N935        N  0.68305811  0.54677660  0.15191281    -0.43370
N936        N  0.90622479  0.70128074  0.03236714    -0.43370
C937        C  0.63234174  0.83377417  0.88655494     0.00220
C938        C  0.67563108  0.83441406  0.89784200    -0.11650
C939        C  0.70095357  0.86483196  0.92226819     0.02460
C940        C  0.68200603  0.89405874  0.93618997     0.00130
C941        C  0.63786120  0.89176504  0.92523550    -0.11590
C942        C  0.61446437  0.86414027  0.90025173     0.02340
H943        H  0.68965249  0.81108156  0.88757886     0.15320
H944        H  0.62290621  0.91442301  0.93532457     0.15320
C945        C  0.57471463  0.87126844  0.88812551     0.36970
C946        C  0.74501888  0.86407026  0.93296643     0.36880
N947        N  0.54312317  0.87730522  0.87840312    -0.43370
N948        N  0.78028177  0.86328866  0.94156346    -0.43370
C949        C  0.79455942  0.60799008  0.93464575     0.00220
C950        C  0.84228098  0.65678299  0.93639382    -0.11650
C951        C  0.87045867  0.68413804  0.91158227     0.02460
C952        C  0.85207827  0.66110422  0.88431875     0.00130
C953        C  0.80220404  0.61482204  0.88264440    -0.11590
C954        C  0.77316832  0.58884295  0.90742271     0.02340
H955        H  0.85872274  0.67224913  0.95728530     0.15320
H956        H  0.78681028  0.59694115  0.86197845     0.15320
C957        C  0.72311933  0.54063544  0.90404723     0.36970
C958        C  0.91800272  0.73545961  0.91486560     0.36880
N959        N  0.68270747  0.50275681  0.90043086    -0.43370
N960        N  0.95593928  0.77667420  0.91772693    -0.43370
loop_ 
_geom_bond_atom_site_label_1 
_geom_bond_atom_site_label_2 
_geom_bond_distance 
_geom_bond_site_symmetry_2 
_ccdc_geom_bond_type 
O1            V9   1.921   1_554  S
O1           C11   1.269       .  A
O2          V249   1.926       .  S
O2           C12   1.272       .  A
O3            V9   1.880       .  S
O3           C13   1.259       .  A
O4          V249   1.876   1_554  S
O4           C14   1.259       .  A
O5           V10   1.918       .  S
O5           C14   1.269       .  A
O6          V250   1.922   1_546  S
O6           C13   1.270       .  A
O7           V10   1.869   1_556  S
O7           C12   1.258       .  A
O8          V250   1.874   1_545  S
O8           C11   1.258       .  A
V9          O242   1.926   1_545  S
V9          O244   1.876   1_546  S
V9          V250   2.081   1_546  T
V10         O246   1.922   1_554  S
V10         O248   1.874       .  S
V10         V249   2.081   1_554  T
C11         C208   1.470       .  S
C12         C220   1.485       .  S
C13         C229   1.475       .  S
C14         C193   1.474       .  S
C15         C181   1.478       .  S
C15          C16   1.399       .  A
C15          C20   1.406       .  A
C16          C17   1.401       .  A
C16          H21   1.084       .  S
C17         C217   1.488       .  S
C17          C18   1.407       .  A
C18          C19   1.409       .  A
C18          H22   1.080       .  S
C19         C508   1.504   1_455  S
C19          C20   1.409       .  A
C20          H23   1.082       .  S
C24         C172   1.498       .  S
C24          C25   1.404       .  A
C24          C29   1.410       .  A
C25          C26   1.404       .  A
C25          H30   1.082       .  S
C26         C232   1.494       .  S
C26          C27   1.407       .  A
C27          C28   1.409       .  A
C27          H31   1.081       .  S
C28         C499   1.504       .  S
C28          C29   1.409       .  A
C29          H32   1.079       .  S
O33          V41   1.911       .  S
O33          C43   1.268       .  A
O34         V521   1.915       .  S
O34          C44   1.269       .  A
O35          V41   1.881       .  S
O35          C45   1.259       .  A
O36         V521   1.877       .  S
O36          C46   1.260       .  A
O37          V42   1.920       .  S
O37          C46   1.270       .  A
O38         V522   1.920   1_455  S
O38          C45   1.270       .  A
O39          V42   1.884       .  S
O39          C44   1.260       .  A
O40         V522   1.887   1_455  S
O40          C43   1.260       .  A
V41         O514   1.915   1_455  S
V41         O516   1.877   1_455  S
V41         V522   2.077   1_455  T
V42         O518   1.920       .  S
V42         O520   1.887       .  S
V42         V521   2.077       .  T
C43         C145   1.469       .  S
C44         C121   1.475       .  S
C45         C157   1.475       .  S
C46         C136   1.479       .  S
C47         C133   1.476       .  S
C47          C48   1.399       .  A
C47          C52   1.405       .  A
C48          C49   1.397       .  A
C48          H53   1.084       .  S
C49         C205   1.475       .  S
C49          C50   1.404       .  A
C50          C51   1.409       .  A
C50          H54   1.083       .  S
C51          C58   1.495       .  S
C51          C52   1.408       .  A
C52          H55   1.083       .  S
C56         C148   1.495       .  S
C56          C57   1.411       .  A
C56          C61   1.404       .  A
C57          C58   1.411       .  A
C57          H62   1.083       .  S
C58          C59   1.406       .  A
C59          C60   1.401       .  A
C59          H63   1.083       .  S
C60         C196   1.476       .  S
C60          C61   1.396       .  A
C61          H64   1.083       .  S
O65          V73   1.933       .  S
O65          C75   1.273       .  A
O66          V73   1.930       .  S
O66          C76   1.273       .  A
O67          V73   1.874       .  S
O67          C77   1.259       .  A
O68          V73   1.872       .  S
O68          C78   1.255       .  A
O69          V74   1.923       .  S
O69          C78   1.270       .  A
O70          V74   1.923       .  S
O70          C77   1.270       .  A
O71          V74   1.867       .  S
O71          C76   1.256       .  A
O72          V74   1.869       .  S
O72          C75   1.256       .  A
V73          V74   2.077       .  T
C75         C109   1.482       .  S
C76         C169   1.492       .  S
C77         C184   1.477       .  S
C78          C97   1.467       .  S
C79         C100   1.486       .  S
C79          C80   1.398       .  A
C79          C84   1.405       .  A
C80          C81   1.404       .  A
C80          H85   1.082       .  S
C81         C124   1.501       .  S
C81          C82   1.412       .  A
C82          C83   1.412       .  A
C82          H86   1.081       .  S
C83         C332   1.499   1_545  S
C83          C84   1.410       .  A
C84          H87   1.083       .  S
C88         C112   1.480       .  S
C88          C89   1.399       .  A
C88          C93   1.405       .  A
C89          C90   1.405       .  A
C89          H94   1.083       .  S
C90         C160   1.498       .  S
C90          C91   1.412       .  A
C91          C92   1.410       .  A
C91          H95   1.083       .  S
C92         C323   1.499       .  S
C92          C93   1.407       .  A
C93          H96   1.083       .  S
C97          C98   1.402       .  A
C97         C102   1.409       .  A
C98          C99   1.399       .  A
C98         H103   1.084       .  S
C99         C100   1.413       .  A
C99         C106   1.445       .  S
C100        C101   1.406       .  A
C101        C102   1.402       .  A
C101        H104   1.085       .  S
C102        C105   1.444       .  S
C105        N107   1.157       .  T
C106        N108   1.157       .  T
C109        C110   1.404       .  A
C109        C114   1.420       .  A
C110        C111   1.410       .  A
C110        H115   1.084       .  S
C111        C112   1.414       .  A
C111        C118   1.442       .  S
C112        C113   1.394       .  A
C113        C114   1.392       .  A
C113        H116   1.086       .  S
C114        C117   1.446       .  S
C117        N119   1.157       .  T
C118        N120   1.157       .  T
C121        C122   1.403       .  A
C121        C126   1.406       .  A
C122        C123   1.402       .  A
C122        H127   1.085       .  S
C123        C124   1.418       .  A
C123        C130   1.444       .  S
C124        C125   1.412       .  A
C125        C126   1.398       .  A
C125        H128   1.083       .  S
C126        C129   1.444       .  S
C129        N131   1.157       .  T
C130        N132   1.157       .  T
C133        C134   1.396       .  A
C133        C138   1.412       .  A
C134        C135   1.394       .  A
C134        H139   1.085       .  S
C135        C136   1.417       .  A
C135        C142   1.445       .  S
C136        C137   1.404       .  A
C137        C138   1.406       .  A
C137        H140   1.084       .  S
C138        C141   1.443       .  S
C141        N143   1.157       .  T
C142        N624   1.157       .  T
N144        C622   1.157   1_455  T
C145        C146   1.400       .  A
C145        C150   1.407       .  A
C146        C147   1.399       .  A
C146        H151   1.085       .  S
C147        C148   1.419       .  A
C147        C154   1.445       .  S
C148        C149   1.409       .  A
C149        C150   1.402       .  A
C149        H152   1.084       .  S
C150        C153   1.444       .  S
C153        N155   1.157       .  T
C154        N156   1.157       .  T
C157        C158   1.400       .  A
C157        C162   1.410       .  A
C158        C159   1.404       .  A
C158        H163   1.085       .  S
C159        C160   1.420       .  A
C159        C166   1.444       .  S
C160        C161   1.408       .  A
C161        C162   1.400       .  A
C161        H164   1.084       .  S
C162        C165   1.444       .  S
C165        N167   1.157       .  T
C166        N168   1.157       .  T
C169        C170   1.405       .  A
C169        C174   1.421       .  A
C170        C171   1.408       .  A
C170        H175   1.084       .  S
C171        C172   1.420       .  A
C171        C178   1.444       .  S
C172        C173   1.402       .  A
C173        C174   1.394       .  A
C173        H176   1.084       .  S
C174        C177   1.446       .  S
C177        N179   1.157       .  T
C178        N180   1.157       .  T
C181        C182   1.408       .  A
C181        C186   1.406       .  A
C182        C183   1.408       .  A
C182        H187   1.084       .  S
C183        C184   1.409       .  A
C183        C190   1.442       .  S
C184        C185   1.406       .  A
C185        C186   1.393       .  A
C185        H188   1.085       .  S
C186        C189   1.445       .  S
C189        N191   1.157       .  T
C190        N192   1.157       .  T
C193        C194   1.405       .  A
C193        C198   1.408       .  A
C194        C195   1.393       .  A
C194        H199   1.085       .  S
C195        C196   1.406       .  A
C195        C202   1.445       .  S
C196        C197   1.407       .  A
C197        C198   1.406       .  A
C197        H200   1.084       .  S
C198        C201   1.443       .  S
C201        N203   1.157       .  T
C202        N204   1.157       .  T
C205        C206   1.408       .  A
C205        C210   1.405       .  A
C206        C207   1.408       .  A
C206        H211   1.084       .  S
C207        C208   1.407       .  A
C207        C214   1.442       .  S
C208        C209   1.404       .  A
C209        C210   1.393       .  A
C209        H212   1.086       .  S
C210        C213   1.445       .  S
C213        N215   1.157       .  T
C214        N216   1.157       .  T
C217        C218   1.410       .  A
C217        C222   1.410       .  A
C218        C219   1.408       .  A
C218        H223   1.084       .  S
C219        C220   1.411       .  A
C219        C226   1.442       .  S
C220        C221   1.406       .  A
C221        C222   1.390       .  A
C221        H224   1.085       .  S
C222        C225   1.446       .  S
C225        N227   1.157       .  T
C226        N228   1.157       .  T
C229        C230   1.403       .  A
C229        C234   1.409       .  A
C230        C231   1.402       .  A
C230        H235   1.085       .  S
C231        C232   1.416       .  A
C231        C238   1.443       .  S
C232        C233   1.406       .  A
C233        C234   1.400       .  A
C233        H236   1.084       .  S
C234        C237   1.439       .  S
C237        N239   1.156       .  T
C238        N240   1.157       .  T
O241        V249   1.921   1_554  S
O241        C251   1.269       .  A
O242        C252   1.272       .  A
O243        V249   1.880       .  S
O243        C253   1.259       .  A
O244        C254   1.259       .  A
O245        V250   1.918       .  S
O245        C254   1.269       .  A
O246        C253   1.270       .  A
O247        V250   1.869   1_556  S
O247        C252   1.258       .  A
O248        C251   1.258       .  A
C251        C448   1.470       .  S
C252        C460   1.485       .  S
C253        C469   1.475       .  S
C254        C433   1.474       .  S
C255        C421   1.478       .  S
C255        C256   1.399       .  A
C255        C260   1.406       .  A
C256        C257   1.401       .  A
C256        H261   1.084       .  S
C257        C457   1.488       .  S
C257        C258   1.407       .  A
C258        C259   1.409       .  A
C258        H262   1.080       .  S
C259        C748   1.504   1_455  S
C259        C260   1.409       .  A
C260        H263   1.082       .  S
C264        C412   1.498       .  S
C264        C265   1.404       .  A
C264        C269   1.410       .  A
C265        C266   1.404       .  A
C265        H270   1.082       .  S
C266        C472   1.494       .  S
C266        C267   1.407       .  A
C267        C268   1.409       .  A
C267        H271   1.081       .  S
C268        C739   1.504       .  S
C268        C269   1.409       .  A
C269        H272   1.079       .  S
O273        V281   1.911       .  S
O273        C283   1.268       .  A
O274        V761   1.915       .  S
O274        C284   1.269       .  A
O275        V281   1.881       .  S
O275        C285   1.259       .  A
O276        V761   1.877       .  S
O276        C286   1.260       .  A
O277        V282   1.920       .  S
O277        C286   1.270       .  A
O278        V762   1.920   1_455  S
O278        C285   1.270       .  A
O279        V282   1.884       .  S
O279        C284   1.260       .  A
O280        V762   1.887   1_455  S
O280        C283   1.260       .  A
V281        O754   1.915   1_455  S
V281        O756   1.877   1_455  S
V281        V762   2.077   1_455  T
V282        O758   1.920       .  S
V282        O760   1.887       .  S
V282        V761   2.077       .  T
C283        C385   1.469       .  S
C284        C361   1.475       .  S
C285        C397   1.475       .  S
C286        C376   1.479       .  S
C287        C373   1.476       .  S
C287        C288   1.399       .  A
C287        C292   1.405       .  A
C288        C289   1.397       .  A
C288        H293   1.084       .  S
C289        C445   1.475       .  S
C289        C290   1.404       .  A
C290        C291   1.409       .  A
C290        H294   1.083       .  S
C291        C298   1.495       .  S
C291        C292   1.408       .  A
C292        H295   1.083       .  S
C296        C388   1.495       .  S
C296        C297   1.411       .  A
C296        C301   1.404       .  A
C297        C298   1.411       .  A
C297        H302   1.083       .  S
C298        C299   1.406       .  A
C299        C300   1.401       .  A
C299        H303   1.083       .  S
C300        C436   1.476       .  S
C300        C301   1.396       .  A
C301        H304   1.083       .  S
O305        V313   1.933       .  S
O305        C315   1.273       .  A
O306        V313   1.930       .  S
O306        C316   1.273       .  A
O307        V313   1.874       .  S
O307        C317   1.259       .  A
O308        V313   1.872       .  S
O308        C318   1.255       .  A
O309        V314   1.923       .  S
O309        C318   1.270       .  A
O310        V314   1.923       .  S
O310        C317   1.270       .  A
O311        V314   1.867       .  S
O311        C316   1.256       .  A
O312        V314   1.869       .  S
O312        C315   1.256       .  A
V313        V314   2.077       .  T
C315        C349   1.482       .  S
C316        C409   1.492       .  S
C317        C424   1.477       .  S
C318        C337   1.467       .  S
C319        C340   1.486       .  S
C319        C320   1.398       .  A
C319        C324   1.405       .  A
C320        C321   1.404       .  A
C320        H325   1.082       .  S
C321        C364   1.501       .  S
C321        C322   1.412       .  A
C322        C323   1.412       .  A
C322        H326   1.081       .  S
C323        C324   1.410       .  A
C324        H327   1.083       .  S
C328        C352   1.480       .  S
C328        C329   1.399       .  A
C328        C333   1.405       .  A
C329        C330   1.405       .  A
C329        H334   1.083       .  S
C330        C400   1.498       .  S
C330        C331   1.412       .  A
C331        C332   1.410       .  A
C331        H335   1.083       .  S
C332        C333   1.407       .  A
C333        H336   1.083       .  S
C337        C338   1.402       .  A
C337        C342   1.409       .  A
C338        C339   1.399       .  A
C338        H343   1.084       .  S
C339        C340   1.413       .  A
C339        C346   1.445       .  S
C340        C341   1.406       .  A
C341        C342   1.402       .  A
C341        H344   1.085       .  S
C342        C345   1.444       .  S
C345        N347   1.157       .  T
C346        N348   1.157       .  T
C349        C350   1.404       .  A
C349        C354   1.420       .  A
C350        C351   1.410       .  A
C350        H355   1.084       .  S
C351        C352   1.414       .  A
C351        C358   1.442       .  S
C352        C353   1.394       .  A
C353        C354   1.392       .  A
C353        H356   1.086       .  S
C354        C357   1.446       .  S
C357        N359   1.157       .  T
C358        N360   1.157       .  T
C361        C362   1.403       .  A
C361        C366   1.406       .  A
C362        C363   1.402       .  A
C362        H367   1.085       .  S
C363        C364   1.418       .  A
C363        C370   1.444       .  S
C364        C365   1.412       .  A
C365        C366   1.398       .  A
C365        H368   1.083       .  S
C366        C369   1.444       .  S
C369        N371   1.157       .  T
C370        N372   1.157       .  T
C373        C374   1.396       .  A
C373        C378   1.412       .  A
C374        C375   1.394       .  A
C374        H379   1.085       .  S
C375        C376   1.417       .  A
C375        C382   1.445       .  S
C376        C377   1.404       .  A
C377        C378   1.406       .  A
C377        H380   1.084       .  S
C378        C381   1.443       .  S
C381        N383   1.157       .  T
C382        N864   1.157       .  T
N384        C862   1.157   1_455  T
C385        C386   1.400       .  A
C385        C390   1.407       .  A
C386        C387   1.399       .  A
C386        H391   1.085       .  S
C387        C388   1.419       .  A
C387        C394   1.445       .  S
C388        C389   1.409       .  A
C389        C390   1.402       .  A
C389        H392   1.084       .  S
C390        C393   1.444       .  S
C393        N395   1.157       .  T
C394        N396   1.157       .  T
C397        C398   1.400       .  A
C397        C402   1.410       .  A
C398        C399   1.404       .  A
C398        H403   1.085       .  S
C399        C400   1.420       .  A
C399        C406   1.444       .  S
C400        C401   1.408       .  A
C401        C402   1.400       .  A
C401        H404   1.084       .  S
C402        C405   1.444       .  S
C405        N407   1.157       .  T
C406        N408   1.157       .  T
C409        C410   1.405       .  A
C409        C414   1.421       .  A
C410        C411   1.408       .  A
C410        H415   1.084       .  S
C411        C412   1.420       .  A
C411        C418   1.444       .  S
C412        C413   1.402       .  A
C413        C414   1.394       .  A
C413        H416   1.084       .  S
C414        C417   1.446       .  S
C417        N419   1.157       .  T
C418        N420   1.157       .  T
C421        C422   1.408       .  A
C421        C426   1.406       .  A
C422        C423   1.408       .  A
C422        H427   1.084       .  S
C423        C424   1.409       .  A
C423        C430   1.442       .  S
C424        C425   1.406       .  A
C425        C426   1.393       .  A
C425        H428   1.085       .  S
C426        C429   1.445       .  S
C429        N431   1.157       .  T
C430        N432   1.157       .  T
C433        C434   1.405       .  A
C433        C438   1.408       .  A
C434        C435   1.393       .  A
C434        H439   1.085       .  S
C435        C436   1.406       .  A
C435        C442   1.445       .  S
C436        C437   1.407       .  A
C437        C438   1.406       .  A
C437        H440   1.084       .  S
C438        C441   1.443       .  S
C441        N443   1.157       .  T
C442        N444   1.157       .  T
C445        C446   1.408       .  A
C445        C450   1.405       .  A
C446        C447   1.408       .  A
C446        H451   1.084       .  S
C447        C448   1.407       .  A
C447        C454   1.442       .  S
C448        C449   1.404       .  A
C449        C450   1.393       .  A
C449        H452   1.086       .  S
C450        C453   1.445       .  S
C453        N455   1.157       .  T
C454        N456   1.157       .  T
C457        C458   1.410       .  A
C457        C462   1.410       .  A
C458        C459   1.408       .  A
C458        H463   1.084       .  S
C459        C460   1.411       .  A
C459        C466   1.442       .  S
C460        C461   1.406       .  A
C461        C462   1.390       .  A
C461        H464   1.085       .  S
C462        C465   1.446       .  S
C465        N467   1.157       .  T
C466        N468   1.157       .  T
C469        C470   1.403       .  A
C469        C474   1.409       .  A
C470        C471   1.402       .  A
C470        H475   1.085       .  S
C471        C472   1.416       .  A
C471        C478   1.443       .  S
C472        C473   1.406       .  A
C473        C474   1.400       .  A
C473        H476   1.084       .  S
C474        C477   1.439       .  S
C477        N479   1.156       .  T
C478        N480   1.157       .  T
O481        V489   1.921   1_554  S
O481        C491   1.269       .  A
O482        V729   1.926       .  S
O482        C492   1.272       .  A
O483        V489   1.880       .  S
O483        C493   1.259       .  A
O484        V729   1.876   1_554  S
O484        C494   1.259       .  A
O485        V490   1.918       .  S
O485        C494   1.269       .  A
O486        V730   1.922   1_546  S
O486        C493   1.270       .  A
O487        V490   1.869   1_556  S
O487        C492   1.258       .  A
O488        V730   1.874   1_545  S
O488        C491   1.258       .  A
V489        O722   1.926   1_545  S
V489        O724   1.876   1_546  S
V489        V730   2.081   1_546  T
V490        O726   1.922   1_554  S
V490        O728   1.874       .  S
V490        V729   2.081   1_554  T
C491        C688   1.470       .  S
C492        C700   1.485       .  S
C493        C709   1.475       .  S
C494        C673   1.474       .  S
C495        C661   1.478       .  S
C495        C496   1.399       .  A
C495        C500   1.406       .  A
C496        C497   1.401       .  A
C496        H501   1.084       .  S
C497        C697   1.488       .  S
C497        C498   1.407       .  A
C498        C499   1.409       .  A
C498        H502   1.080       .  S
C499        C500   1.409       .  A
C500        H503   1.082       .  S
C504        C652   1.498       .  S
C504        C505   1.404       .  A
C504        C509   1.410       .  A
C505        C506   1.404       .  A
C505        H510   1.082       .  S
C506        C712   1.494       .  S
C506        C507   1.407       .  A
C507        C508   1.409       .  A
C507        H511   1.081       .  S
C508        C509   1.409       .  A
C509        H512   1.079       .  S
O513        V521   1.911       .  S
O513        C523   1.268       .  A
O514        C524   1.269       .  A
O515        V521   1.881       .  S
O515        C525   1.259       .  A
O516        C526   1.260       .  A
O517        V522   1.920       .  S
O517        C526   1.270       .  A
O518        C525   1.270       .  A
O519        V522   1.884       .  S
O519        C524   1.260       .  A
O520        C523   1.260       .  A
C523        C625   1.469       .  S
C524        C601   1.475       .  S
C525        C637   1.475       .  S
C526        C616   1.479       .  S
C527        C613   1.476       .  S
C527        C528   1.399       .  A
C527        C532   1.405       .  A
C528        C529   1.397       .  A
C528        H533   1.084       .  S
C529        C685   1.475       .  S
C529        C530   1.404       .  A
C530        C531   1.409       .  A
C530        H534   1.083       .  S
C531        C538   1.495       .  S
C531        C532   1.408       .  A
C532        H535   1.083       .  S
C536        C628   1.495       .  S
C536        C537   1.411       .  A
C536        C541   1.404       .  A
C537        C538   1.411       .  A
C537        H542   1.083       .  S
C538        C539   1.406       .  A
C539        C540   1.401       .  A
C539        H543   1.083       .  S
C540        C676   1.476       .  S
C540        C541   1.396       .  A
C541        H544   1.083       .  S
O545        V553   1.933       .  S
O545        C555   1.273       .  A
O546        V553   1.930       .  S
O546        C556   1.273       .  A
O547        V553   1.874       .  S
O547        C557   1.259       .  A
O548        V553   1.872       .  S
O548        C558   1.255       .  A
O549        V554   1.923       .  S
O549        C558   1.270       .  A
O550        V554   1.923       .  S
O550        C557   1.270       .  A
O551        V554   1.867       .  S
O551        C556   1.256       .  A
O552        V554   1.869       .  S
O552        C555   1.256       .  A
V553        V554   2.077       .  T
C555        C589   1.482       .  S
C556        C649   1.492       .  S
C557        C664   1.477       .  S
C558        C577   1.467       .  S
C559        C580   1.486       .  S
C559        C560   1.398       .  A
C559        C564   1.405       .  A
C560        C561   1.404       .  A
C560        H565   1.082       .  S
C561        C604   1.501       .  S
C561        C562   1.412       .  A
C562        C563   1.412       .  A
C562        H566   1.081       .  S
C563        C812   1.499   1_545  S
C563        C564   1.410       .  A
C564        H567   1.083       .  S
C568        C592   1.480       .  S
C568        C569   1.399       .  A
C568        C573   1.405       .  A
C569        C570   1.405       .  A
C569        H574   1.083       .  S
C570        C640   1.498       .  S
C570        C571   1.412       .  A
C571        C572   1.410       .  A
C571        H575   1.083       .  S
C572        C803   1.499       .  S
C572        C573   1.407       .  A
C573        H576   1.083       .  S
C577        C578   1.402       .  A
C577        C582   1.409       .  A
C578        C579   1.399       .  A
C578        H583   1.084       .  S
C579        C580   1.413       .  A
C579        C586   1.445       .  S
C580        C581   1.406       .  A
C581        C582   1.402       .  A
C581        H584   1.085       .  S
C582        C585   1.444       .  S
C585        N587   1.157       .  T
C586        N588   1.157       .  T
C589        C590   1.404       .  A
C589        C594   1.420       .  A
C590        C591   1.410       .  A
C590        H595   1.084       .  S
C591        C592   1.414       .  A
C591        C598   1.442       .  S
C592        C593   1.394       .  A
C593        C594   1.392       .  A
C593        H596   1.086       .  S
C594        C597   1.446       .  S
C597        N599   1.157       .  T
C598        N600   1.157       .  T
C601        C602   1.403       .  A
C601        C606   1.406       .  A
C602        C603   1.402       .  A
C602        H607   1.085       .  S
C603        C604   1.418       .  A
C603        C610   1.444       .  S
C604        C605   1.412       .  A
C605        C606   1.398       .  A
C605        H608   1.083       .  S
C606        C609   1.444       .  S
C609        N611   1.157       .  T
C610        N612   1.157       .  T
C613        C614   1.396       .  A
C613        C618   1.412       .  A
C614        C615   1.394       .  A
C614        H619   1.085       .  S
C615        C616   1.417       .  A
C615        C622   1.445       .  S
C616        C617   1.404       .  A
C617        C618   1.406       .  A
C617        H620   1.084       .  S
C618        C621   1.443       .  S
C621        N623   1.157       .  T
C625        C626   1.400       .  A
C625        C630   1.407       .  A
C626        C627   1.399       .  A
C626        H631   1.085       .  S
C627        C628   1.419       .  A
C627        C634   1.445       .  S
C628        C629   1.409       .  A
C629        C630   1.402       .  A
C629        H632   1.084       .  S
C630        C633   1.444       .  S
C633        N635   1.157       .  T
C634        N636   1.157       .  T
C637        C638   1.400       .  A
C637        C642   1.410       .  A
C638        C639   1.404       .  A
C638        H643   1.085       .  S
C639        C640   1.420       .  A
C639        C646   1.444       .  S
C640        C641   1.408       .  A
C641        C642   1.400       .  A
C641        H644   1.084       .  S
C642        C645   1.444       .  S
C645        N647   1.157       .  T
C646        N648   1.157       .  T
C649        C650   1.405       .  A
C649        C654   1.421       .  A
C650        C651   1.408       .  A
C650        H655   1.084       .  S
C651        C652   1.420       .  A
C651        C658   1.444       .  S
C652        C653   1.402       .  A
C653        C654   1.394       .  A
C653        H656   1.084       .  S
C654        C657   1.446       .  S
C657        N659   1.157       .  T
C658        N660   1.157       .  T
C661        C662   1.408       .  A
C661        C666   1.406       .  A
C662        C663   1.408       .  A
C662        H667   1.084       .  S
C663        C664   1.409       .  A
C663        C670   1.442       .  S
C664        C665   1.406       .  A
C665        C666   1.393       .  A
C665        H668   1.085       .  S
C666        C669   1.445       .  S
C669        N671   1.157       .  T
C670        N672   1.157       .  T
C673        C674   1.405       .  A
C673        C678   1.408       .  A
C674        C675   1.393       .  A
C674        H679   1.085       .  S
C675        C676   1.406       .  A
C675        C682   1.445       .  S
C676        C677   1.407       .  A
C677        C678   1.406       .  A
C677        H680   1.084       .  S
C678        C681   1.443       .  S
C681        N683   1.157       .  T
C682        N684   1.157       .  T
C685        C686   1.408       .  A
C685        C690   1.405       .  A
C686        C687   1.408       .  A
C686        H691   1.084       .  S
C687        C688   1.407       .  A
C687        C694   1.442       .  S
C688        C689   1.404       .  A
C689        C690   1.393       .  A
C689        H692   1.086       .  S
C690        C693   1.445       .  S
C693        N695   1.157       .  T
C694        N696   1.157       .  T
C697        C698   1.410       .  A
C697        C702   1.410       .  A
C698        C699   1.408       .  A
C698        H703   1.084       .  S
C699        C700   1.411       .  A
C699        C706   1.442       .  S
C700        C701   1.406       .  A
C701        C702   1.390       .  A
C701        H704   1.085       .  S
C702        C705   1.446       .  S
C705        N707   1.157       .  T
C706        N708   1.157       .  T
C709        C710   1.403       .  A
C709        C714   1.409       .  A
C710        C711   1.402       .  A
C710        H715   1.085       .  S
C711        C712   1.416       .  A
C711        C718   1.443       .  S
C712        C713   1.406       .  A
C713        C714   1.400       .  A
C713        H716   1.084       .  S
C714        C717   1.439       .  S
C717        N719   1.156       .  T
C718        N720   1.157       .  T
O721        V729   1.921   1_554  S
O721        C731   1.269       .  A
O722        C732   1.272       .  A
O723        V729   1.880       .  S
O723        C733   1.259       .  A
O724        C734   1.259       .  A
O725        V730   1.918       .  S
O725        C734   1.269       .  A
O726        C733   1.270       .  A
O727        V730   1.869   1_556  S
O727        C732   1.258       .  A
O728        C731   1.258       .  A
C731        C928   1.470       .  S
C732        C940   1.485       .  S
C733        C949   1.475       .  S
C734        C913   1.474       .  S
C735        C901   1.478       .  S
C735        C736   1.399       .  A
C735        C740   1.406       .  A
C736        C737   1.401       .  A
C736        H741   1.084       .  S
C737        C937   1.488       .  S
C737        C738   1.407       .  A
C738        C739   1.409       .  A
C738        H742   1.080       .  S
C739        C740   1.409       .  A
C740        H743   1.082       .  S
C744        C892   1.498       .  S
C744        C745   1.404       .  A
C744        C749   1.410       .  A
C745        C746   1.404       .  A
C745        H750   1.082       .  S
C746        C952   1.494       .  S
C746        C747   1.407       .  A
C747        C748   1.409       .  A
C747        H751   1.081       .  S
C748        C749   1.409       .  A
C749        H752   1.079       .  S
O753        V761   1.911       .  S
O753        C763   1.268       .  A
O754        C764   1.269       .  A
O755        V761   1.881       .  S
O755        C765   1.259       .  A
O756        C766   1.260       .  A
O757        V762   1.920       .  S
O757        C766   1.270       .  A
O758        C765   1.270       .  A
O759        V762   1.884       .  S
O759        C764   1.260       .  A
O760        C763   1.260       .  A
C763        C865   1.469       .  S
C764        C841   1.475       .  S
C765        C877   1.475       .  S
C766        C856   1.479       .  S
C767        C853   1.476       .  S
C767        C768   1.399       .  A
C767        C772   1.405       .  A
C768        C769   1.397       .  A
C768        H773   1.084       .  S
C769        C925   1.475       .  S
C769        C770   1.404       .  A
C770        C771   1.409       .  A
C770        H774   1.083       .  S
C771        C778   1.495       .  S
C771        C772   1.408       .  A
C772        H775   1.083       .  S
C776        C868   1.495       .  S
C776        C777   1.411       .  A
C776        C781   1.404       .  A
C777        C778   1.411       .  A
C777        H782   1.083       .  S
C778        C779   1.406       .  A
C779        C780   1.401       .  A
C779        H783   1.083       .  S
C780        C916   1.476       .  S
C780        C781   1.396       .  A
C781        H784   1.083       .  S
O785        V793   1.933       .  S
O785        C795   1.273       .  A
O786        V793   1.930       .  S
O786        C796   1.273       .  A
O787        V793   1.874       .  S
O787        C797   1.259       .  A
O788        V793   1.872       .  S
O788        C798   1.255       .  A
O789        V794   1.923       .  S
O789        C798   1.270       .  A
O790        V794   1.923       .  S
O790        C797   1.270       .  A
O791        V794   1.867       .  S
O791        C796   1.256       .  A
O792        V794   1.869       .  S
O792        C795   1.256       .  A
V793        V794   2.077       .  T
C795        C829   1.482       .  S
C796        C889   1.492       .  S
C797        C904   1.477       .  S
C798        C817   1.467       .  S
C799        C820   1.486       .  S
C799        C800   1.398       .  A
C799        C804   1.405       .  A
C800        C801   1.404       .  A
C800        H805   1.082       .  S
C801        C844   1.501       .  S
C801        C802   1.412       .  A
C802        C803   1.412       .  A
C802        H806   1.081       .  S
C803        C804   1.410       .  A
C804        H807   1.083       .  S
C808        C832   1.480       .  S
C808        C809   1.399       .  A
C808        C813   1.405       .  A
C809        C810   1.405       .  A
C809        H814   1.083       .  S
C810        C880   1.498       .  S
C810        C811   1.412       .  A
C811        C812   1.410       .  A
C811        H815   1.083       .  S
C812        C813   1.407       .  A
C813        H816   1.083       .  S
C817        C818   1.402       .  A
C817        C822   1.409       .  A
C818        C819   1.399       .  A
C818        H823   1.084       .  S
C819        C820   1.413       .  A
C819        C826   1.445       .  S
C820        C821   1.406       .  A
C821        C822   1.402       .  A
C821        H824   1.085       .  S
C822        C825   1.444       .  S
C825        N827   1.157       .  T
C826        N828   1.157       .  T
C829        C830   1.404       .  A
C829        C834   1.420       .  A
C830        C831   1.410       .  A
C830        H835   1.084       .  S
C831        C832   1.414       .  A
C831        C838   1.442       .  S
C832        C833   1.394       .  A
C833        C834   1.392       .  A
C833        H836   1.086       .  S
C834        C837   1.446       .  S
C837        N839   1.157       .  T
C838        N840   1.157       .  T
C841        C842   1.403       .  A
C841        C846   1.406       .  A
C842        C843   1.402       .  A
C842        H847   1.085       .  S
C843        C844   1.418       .  A
C843        C850   1.444       .  S
C844        C845   1.412       .  A
C845        C846   1.398       .  A
C845        H848   1.083       .  S
C846        C849   1.444       .  S
C849        N851   1.157       .  T
C850        N852   1.157       .  T
C853        C854   1.396       .  A
C853        C858   1.412       .  A
C854        C855   1.394       .  A
C854        H859   1.085       .  S
C855        C856   1.417       .  A
C855        C862   1.445       .  S
C856        C857   1.404       .  A
C857        C858   1.406       .  A
C857        H860   1.084       .  S
C858        C861   1.443       .  S
C861        N863   1.157       .  T
C865        C866   1.400       .  A
C865        C870   1.407       .  A
C866        C867   1.399       .  A
C866        H871   1.085       .  S
C867        C868   1.419       .  A
C867        C874   1.445       .  S
C868        C869   1.409       .  A
C869        C870   1.402       .  A
C869        H872   1.084       .  S
C870        C873   1.444       .  S
C873        N875   1.157       .  T
C874        N876   1.157       .  T
C877        C878   1.400       .  A
C877        C882   1.410       .  A
C878        C879   1.404       .  A
C878        H883   1.085       .  S
C879        C880   1.420       .  A
C879        C886   1.444       .  S
C880        C881   1.408       .  A
C881        C882   1.400       .  A
C881        H884   1.084       .  S
C882        C885   1.444       .  S
C885        N887   1.157       .  T
C886        N888   1.157       .  T
C889        C890   1.405       .  A
C889        C894   1.421       .  A
C890        C891   1.408       .  A
C890        H895   1.084       .  S
C891        C892   1.420       .  A
C891        C898   1.444       .  S
C892        C893   1.402       .  A
C893        C894   1.394       .  A
C893        H896   1.084       .  S
C894        C897   1.446       .  S
C897        N899   1.157       .  T
C898        N900   1.157       .  T
C901        C902   1.408       .  A
C901        C906   1.406       .  A
C902        C903   1.408       .  A
C902        H907   1.084       .  S
C903        C904   1.409       .  A
C903        C910   1.442       .  S
C904        C905   1.406       .  A
C905        C906   1.393       .  A
C905        H908   1.085       .  S
C906        C909   1.445       .  S
C909        N911   1.157       .  T
C910        N912   1.157       .  T
C913        C914   1.405       .  A
C913        C918   1.408       .  A
C914        C915   1.393       .  A
C914        H919   1.085       .  S
C915        C916   1.406       .  A
C915        C922   1.445       .  S
C916        C917   1.407       .  A
C917        C918   1.406       .  A
C917        H920   1.084       .  S
C918        C921   1.443       .  S
C921        N923   1.157       .  T
C922        N924   1.157       .  T
C925        C926   1.408       .  A
C925        C930   1.405       .  A
C926        C927   1.408       .  A
C926        H931   1.084       .  S
C927        C928   1.407       .  A
C927        C934   1.442       .  S
C928        C929   1.404       .  A
C929        C930   1.393       .  A
C929        H932   1.086       .  S
C930        C933   1.445       .  S
C933        N935   1.157       .  T
C934        N936   1.157       .  T
C937        C938   1.410       .  A
C937        C942   1.410       .  A
C938        C939   1.408       .  A
C938        H943   1.084       .  S
C939        C940   1.411       .  A
C939        C946   1.442       .  S
C940        C941   1.406       .  A
C941        C942   1.390       .  A
C941        H944   1.085       .  S
C942        C945   1.446       .  S
C945        N947   1.157       .  T
C946        N948   1.157       .  T
C949        C950   1.403       .  A
C949        C954   1.409       .  A
C950        C951   1.402       .  A
C950        H955   1.085       .  S
C951        C952   1.416       .  A
C951        C958   1.443       .  S
C952        C953   1.406       .  A
C953        C954   1.400       .  A
C953        H956   1.084       .  S
C954        C957   1.439       .  S
C957        N959   1.156       .  T
C958        N960   1.157       .  T
