geometry optimzed in LAMMPS
_audit_creation_date              2020-11-30 
_audit_creation_method            'lammps2cif' 
_symmetry_space_group_name_H-M    'P1' 
_symmetry_Int_Tables_number       1 
_symmetry_cell_setting            triclinic 
loop_ 
_symmetry_equiv_pos_as_xyz 
  x,y,z 
_cell_length_a                    44.20953911 
_cell_length_b                    44.438279825430676 
_cell_length_c                    66.34609801371009 
_cell_angle_alpha                 90.0171840097793 
_cell_angle_beta                  89.87656177657253 
_cell_angle_gamma                 119.82965995143408 
loop_ 
_atom_site_label 
_atom_site_type_symbol 
_atom_site_fract_x 
_atom_site_fract_y 
_atom_site_fract_z 
_atom_site_charge 
O1          O  0.03156669  0.01612379  0.22022917    -0.71500
O2          O  0.03256257  0.01742292  0.28075537    -0.72500
O3          O  0.03265395  0.47174866  0.25096304    -0.61100
O4          O  0.03122961  0.06127215  0.25025263    -0.69600
O5          O  0.47356005  0.03222638  0.25078692    -0.69100
O6          O  0.47499066  0.44276761  0.25096687    -0.60400
O7          O  0.47456938  0.48759610  0.28115882    -0.72900
O8          O  0.47372832  0.48734935  0.22081289    -0.71700
Cu9        Cu  0.03416192  0.01771890  0.25046068     1.04600
Cu10       Cu  0.47220847  0.48647784  0.25100957     1.04300
C11         C  0.50243318  0.50167448  0.21101058     0.94600
C12         C  0.00368193  0.00269482  0.29040446     0.93800
C13         C  0.00397478  0.44291711  0.25097271     0.85900
C14         C  0.00223947  0.06108023  0.25044843     0.92200
O15         O  0.47517449  0.28346032  0.25055689    -0.71500
O16         O  0.47369774  0.19246504  0.24946533    -0.72500
O17         O  0.47451793  0.23709317  0.28011352    -0.61100
O18         O  0.47390740  0.23862243  0.21987001    -0.69600
O19         O  0.03173371  0.26494740  0.21952506    -0.69100
O20         O  0.03245507  0.26704916  0.27998329    -0.60400
O21         O  0.03137082  0.22061781  0.25016336    -0.72900
O22         O  0.03282218  0.31161584  0.24935561    -0.71700
Cu23       Cu  0.47232981  0.23696619  0.25000692     1.04600
Cu24       Cu  0.03413780  0.26705449  0.24973878     1.04300
C25         C  0.50413440  0.31202045  0.25004827     0.94600
C26         C  0.50240285  0.19207130  0.24979501     0.93800
C27         C  0.50349491  0.25204938  0.28950178     0.85900
C28         C  0.50266399  0.25156041  0.21018423     0.92200
O29         O  0.28084828  0.01638838  0.28034135    -0.71500
O30         O  0.27961302  0.01532924  0.21986749    -0.72500
O31         O  0.27990187  0.06088867  0.24996565    -0.61100
O32         O  0.28106037  0.47096640  0.25049481    -0.69600
O33         O  0.22340915  0.44263915  0.25110250    -0.69100
O34         O  0.22223077  0.03205010  0.25031518    -0.60400
O35         O  0.22229141  0.48632776  0.22040971    -0.72900
O36         O  0.22459202  0.48909860  0.28082571    -0.71700
Cu37       Cu  0.28214520  0.01675944  0.25007702     1.04600
Cu38       Cu  0.22143009  0.48666098  0.25066303     1.04300
C39         C  0.25362312  0.50401164  0.29023769     0.94600
C40         C  0.25085007  0.50031252  0.21045491     0.93800
C41         C  0.25093223  0.06080916  0.25008527     0.85900
C42         C  0.25213978  0.44233892  0.25086005     0.92200
O43         O  0.22069182  0.23673874  0.21933013    -0.71500
O44         O  0.22052392  0.23585708  0.27955772    -0.72500
O45         O  0.22113673  0.28185761  0.24972303    -0.61100
O46         O  0.22049850  0.19102257  0.24924880    -0.69600
O47         O  0.27817463  0.21965447  0.24942227    -0.69100
O48         O  0.27880363  0.31001021  0.24933183    -0.60400
O49         O  0.27835265  0.26497690  0.27944758    -0.72900
O50         O  0.27838940  0.26475808  0.21919352    -0.71700
Cu51       Cu  0.21867907  0.23538328  0.24944919     1.04600
Cu52       Cu  0.28040111  0.26580283  0.24933379     1.04300
C53         C  0.24950803  0.25079131  0.20964998     0.94600
C54         C  0.24944841  0.25039101  0.28904086     0.93800
C55         C  0.25013613  0.31042572  0.24965282     0.85900
C56         C  0.24938932  0.19095362  0.24939985     0.92200
O57         O  0.01520298  0.03101708  0.44776365    -0.71500
O58         O  0.01698954  0.03269458  0.38729625    -0.72500
O59         O  0.47062868  0.03183840  0.41735998    -0.61100
O60         O  0.06134501  0.03192327  0.41791273    -0.69600
O61         O  0.03309699  0.47524311  0.41700924    -0.69100
O62         O  0.44270324  0.47543533  0.41740750    -0.60400
O63         O  0.48784296  0.47572258  0.38721550    -0.72900
O64         O  0.48777516  0.47489564  0.44739826    -0.71700
Cu65       Cu  0.01703650  0.03390175  0.41759764     1.04600
Cu66       Cu  0.48687232  0.47335615  0.41726388     1.04300
C67         C  0.00121002  0.00201141  0.45709110     0.94600
C68         C  0.00214025  0.00411698  0.37754579     0.93800
C69         C  0.44186965  0.00307440  0.41736980     0.85900
C70         C  0.06118315  0.00312542  0.41712217     0.92200
O71         O  0.01428666  0.27860228  0.44641991    -0.71500
O72         O  0.01385560  0.27928144  0.38608798    -0.72500
O73         O  0.46872706  0.27863572  0.41665857    -0.61100
O74         O  0.05942011  0.27914332  0.41580126    -0.69600
O75         O  0.03086196  0.22174951  0.41584823    -0.69100
O76         O  0.44017597  0.22112003  0.41619732    -0.60400
O77         O  0.48568319  0.22185852  0.38588695    -0.72900
O78         O  0.48551896  0.22119194  0.44642315    -0.71700
Cu79       Cu  0.01504689  0.28089450  0.41626203     1.04600
Cu80       Cu  0.48455886  0.21947054  0.41610108     1.04300
C81         C  0.49983465  0.24990138  0.45605843     0.94600
C82         C  0.49995073  0.25069670  0.37637024     0.93800
C83         C  0.44008724  0.24980608  0.41647115     0.85900
C84         C  0.05959114  0.25048818  0.41556748     0.92200
O85         O  0.21968872  0.03084457  0.41725016    -0.71500
O86         O  0.31001655  0.03068163  0.41811746    -0.72500
O87         O  0.26689984  0.03259486  0.38729604    -0.61100
O88         O  0.26276521  0.02854639  0.44786112    -0.69600
O89         O  0.23623912  0.47160495  0.44646479    -0.69100
O90         O  0.23768805  0.47715571  0.38620698    -0.60400
O91         O  0.28242632  0.47468077  0.41592556    -0.72900
O92         O  0.19171446  0.47459372  0.41656232    -0.71700
Cu93       Cu  0.26584164  0.03268366  0.41766760     1.04600
Cu94       Cu  0.23601556  0.47251371  0.41622891     1.04300
C95         C  0.19094886  0.00213945  0.41678618     0.94600
C96         C  0.31020610  0.00207657  0.41717890     0.93800
C97         C  0.25205456  0.00428413  0.37729811     0.85900
C98         C  0.24871630  0.99912940  0.45675457     0.92200
O99         O  0.23560462  0.22130593  0.38562118    -0.71500
O100        O  0.23642736  0.22242111  0.44595858    -0.72500
O101        O  0.19094942  0.22202291  0.41576459    -0.61100
O102        O  0.28098594  0.22145482  0.41564997    -0.69600
O103        O  0.31001407  0.27898172  0.41595879    -0.69100
O104        O  0.21973500  0.27940608  0.41508836    -0.60400
O105        O  0.26471038  0.27981767  0.44564734    -0.72900
O106        O  0.26541151  0.27881281  0.38542644    -0.71700
Cu107      Cu  0.23497471  0.21979786  0.41577488     1.04600
Cu108      Cu  0.26595925  0.28125312  0.41551677     1.04300
C109        C  0.25047680  0.24998303  0.37597211     0.94600
C110        C  0.25079913  0.25128002  0.45542609     0.93800
C111        C  0.19091249  0.25072470  0.41524147     0.85900
C112        C  0.30977369  0.25012236  0.41589289     0.92200
O113        O  0.47176863  0.48586571  0.05338359    -0.71500
O114        O  0.47219075  0.48575114  0.11388888    -0.72500
O115        O  0.47120929  0.03034402  0.08375011    -0.61100
O116        O  0.47206636  0.44046184  0.08352804    -0.69600
O117        O  0.02975926  0.46895838  0.08358511    -0.69100
O118        O  0.02888791  0.05879293  0.08327106    -0.60400
O119        O  0.02914437  0.01388047  0.11347241    -0.72900
O120        O  0.02896684  0.01357783  0.05321614    -0.71700
Cu121      Cu  0.46996915  0.48465677  0.08363244     1.04600
Cu122      Cu  0.03095404  0.01465576  0.08332743     1.04300
C123        C  0.50065137  0.49987085  0.04374436     0.94600
C124        C  0.50113806  0.50043059  0.12339308     0.93800
C125        C  0.50006729  0.05897885  0.08346931     0.85900
C126        C  0.50090616  0.44029883  0.08351707     0.92200
O127        O  0.47156249  0.19025048  0.08398903    -0.71500
O128        O  0.47203029  0.28078142  0.08374280    -0.72500
O129        O  0.47138580  0.23516669  0.05373879    -0.61100
O130        O  0.47208757  0.23604892  0.11406959    -0.69600
O131        O  0.02995053  0.26314113  0.11379414    -0.69100
O132        O  0.02910032  0.26419576  0.05344295    -0.60400
O133        O  0.02972899  0.30914110  0.08395419    -0.72900
O134        O  0.02923536  0.21856566  0.08317102    -0.71700
Cu135      Cu  0.46976693  0.23456364  0.08390729     1.04600
Cu136      Cu  0.03151484  0.26476106  0.08358977     1.04300
C137        C  0.50033084  0.18997343  0.08350152     0.94600
C138        C  0.50093200  0.30939020  0.08379498     0.93800
C139        C  0.50013057  0.24971506  0.04398032     0.85900
C140        C  0.00111171  0.24955265  0.12344484     0.92200
O141        O  0.21969654  0.48364028  0.11338672    -0.71500
O142        O  0.21873988  0.48387115  0.05287532    -0.72500
O143        O  0.21955881  0.43861650  0.08297938    -0.61100
O144        O  0.21957540  0.02887564  0.08322475    -0.69600
O145        O  0.27723533  0.05737297  0.08226264    -0.69100
O146        O  0.27723693  0.46727959  0.08315794    -0.60400
O147        O  0.27705560  0.01086354  0.05273970    -0.72900
O148        O  0.27783339  0.01344599  0.11312647    -0.71700
Cu149      Cu  0.21725770  0.48269964  0.08313874     1.04600
Cu150      Cu  0.27941094  0.01324930  0.08291241     1.04300
C151        C  0.24870981  0.49840677  0.12281893     0.94600
C152        C  0.24757265  0.49743878  0.04322688     0.93800
C153        C  0.24846317  0.43857459  0.08314012     0.85900
C154        C  0.24840160  0.05753667  0.08260117     0.92200
O155        O  0.27785708  0.30779177  0.08276435    -0.71500
O156        O  0.27741107  0.21722366  0.08211056    -0.72500
O157        O  0.27722104  0.26276967  0.05230785    -0.61100
O158        O  0.27806714  0.26246425  0.11256420    -0.69600
O159        O  0.22036879  0.23403816  0.11277493    -0.69100
O160        O  0.21952273  0.23437673  0.05252166    -0.60400
O161        O  0.21974100  0.18883914  0.08234874    -0.72900
O162        O  0.22018725  0.27931921  0.08300901    -0.71700
Cu163      Cu  0.27964220  0.26351525  0.08241775     1.04600
Cu164      Cu  0.21796562  0.23313894  0.08267438     1.04300
C165        C  0.24904082  0.30797004  0.08305807     0.94600
C166        C  0.24851756  0.18858312  0.08211156     0.93800
C167        C  0.24830105  0.24870173  0.04280177     0.85900
C168        C  0.24928543  0.24848675  0.12228098     0.92200
O169        O  0.48540444  0.01207145  0.88663042    -0.71500
O170        O  0.48462270  0.01261163  0.94686717    -0.72500
O171        O  0.03015975  0.05711624  0.91660463    -0.61100
O172        O  0.43943476  0.46762274  0.91677653    -0.69600
O173        O  0.46821351  0.43872488  0.91743600    -0.69100
O174        O  0.05925506  0.02853768  0.91642844    -0.60400
O175        O  0.01443730  0.48489690  0.94705670    -0.72900
O176        O  0.01299951  0.48259962  0.88665807    -0.71700
Cu177      Cu  0.48395818  0.01320120  0.91670965     1.04600
Cu178      Cu  0.01464188  0.48266027  0.91684583     1.04300
C179        C  0.99961917  0.99728847  0.87716063     0.94600
C180        C  0.99969567  0.99900666  0.95661014     0.93800
C181        C  0.05911673  0.05723349  0.91634407     0.85900
C182        C  0.43935249  0.43883103  0.91712621     0.92200
O183        O  0.46876834  0.19105220  0.91754553    -0.71500
O184        O  0.05880133  0.28155022  0.91719500    -0.72500
O185        O  0.01452749  0.23652654  0.94753610    -0.61100
O186        O  0.01335380  0.23629098  0.88718993    -0.69600
O187        O  0.48449242  0.26509559  0.88746413    -0.69100
O188        O  0.48386633  0.26379808  0.94783028    -0.60400
O189        O  0.02942786  0.30983781  0.91792066    -0.72900
O190        O  0.43931460  0.21927020  0.91739713    -0.71700
Cu191      Cu  0.01487539  0.23536614  0.91736072     1.04600
Cu192      Cu  0.48327677  0.26551272  0.91766933     1.04300
C193        C  0.43967384  0.19069433  0.91738684     0.94600
C194        C  0.05849579  0.31014087  0.91759384     0.93800
C195        C  0.49926741  0.25011319  0.95713323     0.85900
C196        C  0.49875613  0.25064035  0.87768492     0.92200
O197        O  0.30941930  0.03068782  0.91660130    -0.71500
O198        O  0.21830648  0.44121869  0.91581238    -0.72500
O199        O  0.26417170  0.48731538  0.88582412    -0.61100
O200        O  0.26322803  0.48523706  0.94632993    -0.69600
O201        O  0.23553675  0.01376275  0.94690130    -0.69100
O202        O  0.23375549  0.01318879  0.88649665    -0.60400
O203        O  0.18926185  0.46982181  0.91684640    -0.72900
O204        O  0.28000022  0.05893357  0.91630050    -0.71700
Cu205      Cu  0.26462596  0.48517976  0.91605910     1.04600
Cu206      Cu  0.23383033  0.01463374  0.91672390     1.04300
C207        C  0.30909068  0.05927637  0.91641874     0.94600
C208        C  0.18936283  0.44112636  0.91647405     0.93800
C209        C  0.24913091  0.99977376  0.87681900     0.85900
C210        C  0.24962913  0.99891059  0.95640723     0.92200
O211        O  0.23448699  0.26255063  0.88588650    -0.71500
O212        O  0.23284210  0.26210441  0.94620820    -0.72500
O213        O  0.27900868  0.30798592  0.91635365    -0.61100
O214        O  0.18904028  0.21715510  0.91575614    -0.69600
O215        O  0.21862806  0.18908980  0.91659567    -0.69100
O216        O  0.30840311  0.27968489  0.91610805    -0.60400
O217        O  0.26383070  0.23521742  0.94646118    -0.72900
O218        O  0.26330916  0.23368542  0.88621027    -0.71700
Cu219      Cu  0.23284837  0.26348296  0.91603950     1.04600
Cu220      Cu  0.26456934  0.23346351  0.91635262     1.04300
C221        C  0.24867773  0.24770895  0.87642907     0.94600
C222        C  0.24823130  0.24870234  0.95582337     0.93800
C223        C  0.30808106  0.30826826  0.91633351     0.85900
C224        C  0.18951027  0.18863632  0.91610024     0.92200
O225        O  0.44090234  0.47023496  0.58466927    -0.71500
O226        O  0.03041838  0.46847916  0.58330060    -0.72500
O227        O  0.48595933  0.46805607  0.61406150    -0.61100
O228        O  0.48556853  0.47081432  0.55375471    -0.69600
O229        O  0.01513984  0.02792765  0.55429249    -0.69100
O230        O  0.01272326  0.02714615  0.61452950    -0.60400
O231        O  0.05896855  0.02660798  0.58483374    -0.72900
O232        O  0.46910635  0.02808215  0.58385859    -0.71700
Cu233      Cu  0.48467529  0.46738240  0.58390634     1.04600
Cu234      Cu  0.01505318  0.02945785  0.58439841     1.04300
C235        C  0.44030573  0.99940950  0.58427567     0.94600
C236        C  0.05865997  0.99769451  0.58427639     0.93800
C237        C  0.99860134  0.99822024  0.62388640     0.85900
C238        C  0.00022644  0.99942493  0.54451617     0.92200
O239        O  0.01504586  0.28045419  0.55297332    -0.71500
O240        O  0.01495266  0.28207551  0.61351820    -0.72500
O241        O  0.06018413  0.28079304  0.58332955    -0.61100
O242        O  0.47035491  0.28203491  0.58294520    -0.69600
O243        O  0.44114747  0.22451303  0.58474814    -0.69100
O244        O  0.03122578  0.22341443  0.58292507    -0.60400
O245        O  0.48773409  0.22453040  0.61387175    -0.72900
O246        O  0.48467984  0.22306875  0.55354478    -0.71700
Cu247      Cu  0.01619237  0.28335684  0.58318517     1.04600
Cu248      Cu  0.48516988  0.22188842  0.58378488     1.04300
C249        C  0.49965873  0.25148701  0.54363076     0.94600
C250        C  0.50137725  0.25343525  0.62323128     0.93800
C251        C  0.06012150  0.25201358  0.58297185     0.85900
C252        C  0.44157618  0.25345391  0.58397126     0.92200
O253        O  0.28198872  0.46900113  0.58414358    -0.71500
O254        O  0.19045639  0.46728356  0.58347949    -0.72500
O255        O  0.23642725  0.46709875  0.55341956    -0.61100
O256        O  0.23639065  0.46887379  0.61391602    -0.69600
O257        O  0.26317961  0.02696266  0.61343529    -0.69100
O258        O  0.26256539  0.02516096  0.55304316    -0.60400
O259        O  0.21770551  0.02527654  0.58317930    -0.72900
O260        O  0.30877648  0.02678425  0.58321751    -0.71700
Cu261      Cu  0.23532657  0.46601446  0.58374406     1.04600
Cu262      Cu  0.26406974  0.02801666  0.58319305     1.04300
C263        C  0.30929148  0.99830584  0.58377953     0.94600
C264        C  0.18913095  0.99642143  0.58332982     0.93800
C265        C  0.24877844  0.99622724  0.54368884     0.85900
C266        C  0.24946335  0.99843114  0.62321961     0.92200
O267        O  0.26631102  0.28138115  0.55249608    -0.71500
O268        O  0.26441406  0.28070267  0.61301010    -0.72500
O269        O  0.31117102  0.28196140  0.58302436    -0.61100
O270        O  0.22007212  0.28054140  0.58234087    -0.69600
O271        O  0.19179296  0.22315541  0.58241038    -0.69100
O272        O  0.28309007  0.22434629  0.58322178    -0.60400
O273        O  0.23693977  0.22308120  0.61276229    -0.72900
O274        O  0.23822269  0.22398290  0.55259731    -0.71700
Cu275      Cu  0.26648615  0.28316797  0.58272882     1.04600
Cu276      Cu  0.23650884  0.22164828  0.58271389     1.04300
C277        C  0.25240017  0.25263414  0.54292027     0.94600
C278        C  0.25057223  0.25171626  0.62236402     0.93800
C279        C  0.31149893  0.25339678  0.58332113     0.85900
C280        C  0.19141943  0.25174205  0.58230649     0.92200
O281        O  0.46761098  0.43819308  0.75079273    -0.71500
O282        O  0.05720016  0.02826105  0.74992756    -0.72500
O283        O  0.01330952  0.48352520  0.78046499    -0.61100
O284        O  0.01233162  0.48250314  0.72033945    -0.69600
O285        O  0.48206251  0.01197445  0.72043409    -0.69100
O286        O  0.48447802  0.01292009  0.78089268    -0.60400
O287        O  0.02861709  0.05736351  0.75002901    -0.72900
O288        O  0.43856332  0.46680975  0.75107046    -0.71700
Cu289      Cu  0.01381921  0.48210751  0.75039683     1.04600
Cu290      Cu  0.48216411  0.01341423  0.75068864     1.04300
C291        C  0.43865843  0.43807967  0.75102838     0.94600
C292        C  0.05740947  0.05711619  0.74974948     0.93800
C293        C  0.49884690  0.99811829  0.79018311     0.85900
C294        C  0.49654553  0.99764685  0.71073161     0.92200
O295        O  0.01143564  0.23534615  0.78033240    -0.71500
O296        O  0.01245578  0.23685524  0.71996204    -0.72500
O297        O  0.05700260  0.28113108  0.75054882    -0.61100
O298        O  0.46706733  0.19090629  0.74972117    -0.69600
O299        O  0.43760876  0.21911114  0.74978819    -0.69100
O300        O  0.02797438  0.30978451  0.75078302    -0.60400
O301        O  0.48337451  0.26550246  0.72004774    -0.72900
O302        O  0.48209307  0.26366746  0.78049870    -0.71700
Cu303      Cu  0.01297052  0.23508403  0.75013262     1.04600
Cu304      Cu  0.48171185  0.26549624  0.75028865     1.04300
C305        C  0.49671931  0.24940185  0.79006287     0.94600
C306        C  0.49813515  0.25142004  0.71038983     0.93800
C307        C  0.05692250  0.30983534  0.75082636     0.85900
C308        C  0.43799542  0.19052772  0.74959155     0.92200
O309        O  0.21731135  0.44060225  0.75113675    -0.71500
O310        O  0.30820794  0.03020924  0.74977802    -0.72500
O311        O  0.26369461  0.48769017  0.78042188    -0.61100
O312        O  0.26173136  0.48453476  0.72011857    -0.69600
O313        O  0.23421475  0.01370541  0.71997258    -0.69100
O314        O  0.23316808  0.01326929  0.78051064    -0.60400
O315        O  0.27888593  0.05855769  0.75028391    -0.72900
O316        O  0.18794447  0.46890647  0.75018371    -0.71700
Cu317      Cu  0.26352844  0.48501732  0.75027866     1.04600
Cu318      Cu  0.23272442  0.01457312  0.75024278     1.04300
C319        C  0.18825037  0.44032726  0.75087887     0.94600
C320        C  0.30791291  0.05882321  0.74987564     0.93800
C321        C  0.24857019  0.99977506  0.79005100     0.85900
C322        C  0.24855047  0.99907395  0.71041917     0.92200
O323        O  0.26257535  0.23145720  0.77927134    -0.71500
O324        O  0.26389676  0.23360773  0.71880438    -0.72500
O325        O  0.30842116  0.27791114  0.74958846    -0.61100
O326        O  0.21812189  0.18721850  0.74854610    -0.69600
O327        O  0.18905331  0.21583090  0.74877737    -0.69100
O328        O  0.27905827  0.30620240  0.74989782    -0.60400
O329        O  0.23472189  0.26210441  0.71921387    -0.72900
O330        O  0.23328426  0.25985068  0.77941448    -0.71700
Cu331      Cu  0.26429795  0.23155072  0.74903303     1.04600
Cu332      Cu  0.23304252  0.26195318  0.74932962     1.04300
C333        C  0.24763247  0.24532523  0.78896926     0.94600
C334        C  0.24945971  0.24820931  0.70937590     0.93800
C335        C  0.30812034  0.30653280  0.74994761     0.85900
C336        C  0.18916271  0.18713810  0.74854936     0.92200
C337        C  0.40484137  0.12514430  0.75031705     0.25000
C338        C  0.40472154  0.15679972  0.74930157    -0.23100
C339        C  0.37238955  0.15575691  0.74810983     0.19900
C340        C  0.34114589  0.12408949  0.74822192     0.24900
C341        C  0.34124600  0.09246260  0.74950872    -0.23100
C342        C  0.37358586  0.09346646  0.75043040     0.19800
F343        F  0.37524364  0.06381031  0.75158312    -0.13000
F344        F  0.43521996  0.12455735  0.75132814    -0.15400
F345        F  0.31077708  0.12465467  0.74698696    -0.15400
F346        F  0.37072154  0.18538267  0.74675907    -0.13000
C347        C  0.09130630  0.37482894  0.75467708     0.25000
C348        C  0.09056197  0.34319022  0.75115471    -0.23100
C349        C  0.12242012  0.34382501  0.74793241     0.19900
C350        C  0.15403040  0.37517740  0.74801356     0.24900
C351        C  0.15473305  0.40685281  0.75128594    -0.23100
C352        C  0.12292121  0.40617883  0.75476184     0.19800
F353        F  0.12219389  0.43586012  0.75849940    -0.13000
F354        F  0.06146663  0.37563320  0.75826026    -0.15400
F355        F  0.18388732  0.37435977  0.74453063    -0.15400
F356        F  0.12320715  0.31412730  0.74436550    -0.13000
C357        C  0.40514770  0.37270435  0.75109820     0.25000
C358        C  0.40519250  0.40447115  0.75108426    -0.23100
C359        C  0.37288299  0.40361000  0.75087245     0.19900
C360        C  0.34153550  0.37198104  0.75054010     0.24900
C361        C  0.34151052  0.34021532  0.75042139    -0.23100
C362        C  0.37382442  0.34109919  0.75075507     0.19800
F363        F  0.37541856  0.31136460  0.75071792    -0.13000
F364        F  0.43546186  0.37192626  0.75139794    -0.15400
F365        F  0.31120298  0.37272374  0.75025949    -0.15400
F366        F  0.37133858  0.43337387  0.75090050    -0.13000
C367        C  0.12297052  0.09075138  0.75202309     0.25000
C368        C  0.09116071  0.09034249  0.74919483    -0.23100
C369        C  0.09205854  0.12207964  0.74578079     0.19900
C370        C  0.12376604  0.15330277  0.74539949     0.24900
C371        C  0.15554888  0.15375986  0.74844721    -0.23100
C372        C  0.15468962  0.12199075  0.75165423     0.19800
F373        F  0.18450279  0.12095012  0.75476762    -0.13000
F374        F  0.12360075  0.06094405  0.75544864    -0.15400
F375        F  0.12313952  0.18307947  0.74184453    -0.15400
F376        F  0.06226861  0.12312597  0.74257954    -0.13000
C377        C  0.26364554  0.23250114  0.65472371     0.25000
C378        C  0.25049712  0.25110807  0.64446455    -0.23100
C379        C  0.23680893  0.26855927  0.65542054     0.19900
C380        C  0.23612574  0.26737217  0.67647314     0.24900
C381        C  0.24976734  0.24911050  0.68698290    -0.23100
C382        C  0.26361441  0.23171687  0.67577738     0.19800
F383        F  0.27708475  0.21379161  0.68507578    -0.13000
F384        F  0.27724980  0.21566259  0.64430860    -0.15400
F385        F  0.22196812  0.28409167  0.68645940    -0.15400
F386        F  0.22309076  0.28589154  0.64569013    -0.13000
C387        C  0.23655547  0.01752091  0.65585827     0.25000
C388        C  0.24965287  0.99902902  0.64537465    -0.23100
C389        C  0.26275947  0.48056922  0.65625445     0.19900
C390        C  0.26226860  0.48081120  0.67731351     0.24900
C391        C  0.24912536  0.99926203  0.68797967    -0.23100
C392        C  0.23598706  0.01744788  0.67694370     0.19800
F393        F  0.22253973  0.03525303  0.68645036    -0.13000
F394        F  0.22339485  0.03491050  0.64564153    -0.15400
F395        F  0.27589041  0.46365733  0.68732088    -0.15400
F396        F  0.27695672  0.46360025  0.64656236    -0.13000
C397        C  0.38149202  0.23216765  0.59727826     0.25000
C398        C  0.40856273  0.25391795  0.58412052    -0.23100
C399        C  0.40381312  0.27604459  0.57100143     0.19900
C400        C  0.37222293  0.27606866  0.57084573     0.24900
C401        C  0.34497859  0.25393166  0.58378179    -0.23100
C402        C  0.34987382  0.23214644  0.59708903     0.19800
F403        F  0.32436752  0.21157393  0.61028157    -0.13000
F404        F  0.38604231  0.21169452  0.61069810    -0.15400
F405        F  0.36777147  0.29676440  0.55754688    -0.15400
F406        F  0.42931645  0.29671127  0.55782976    -0.13000
C407        C  0.15723621  0.28311764  0.58331007     0.25000
C408        C  0.15776225  0.25168598  0.58224713    -0.23100
C409        C  0.12575923  0.22034105  0.58125624     0.19900
C410        C  0.09417223  0.22042319  0.58142399     0.24900
C411        C  0.09367026  0.25185620  0.58262061    -0.23100
C412        C  0.12569381  0.28319776  0.58349853     0.19800
F413        F  0.12679324  0.31423891  0.58464893    -0.13000
F414        F  0.18726160  0.31410200  0.58430872    -0.15400
F415        F  0.06410094  0.18949644  0.58037175    -0.15400
F416        F  0.12476323  0.18935419  0.58008836    -0.13000
C417        C  0.00689760  0.22955889  0.65616503     0.25000
C418        C  0.50113002  0.25348334  0.64544996    -0.23100
C419        C  0.49406360  0.27660938  0.65611717     0.19900
C420        C  0.49260827  0.27571647  0.67719576     0.24900
C421        C  0.49880493  0.25200112  0.68802525    -0.23100
C422        C  0.00591934  0.22889714  0.67721183     0.19800
F423        F  0.01138881  0.20514480  0.68693662    -0.13000
F424        F  0.01413914  0.20713887  0.64624328    -0.15400
F425        F  0.48538422  0.29829581  0.68693483    -0.15400
F426        F  0.48749871  0.29939622  0.64610603    -0.13000
C427        C  0.40415676  0.02609798  0.57465638     0.25000
C428        C  0.40700892  0.99952116  0.58440540    -0.23100
C429        C  0.37874244  0.47283643  0.59466439     0.19900
C430        C  0.34701179  0.47253295  0.59446730     0.24900
C431        C  0.34294807  0.99891842  0.58412788    -0.23100
C432        C  0.37239832  0.02578404  0.57450683     0.19800
F433        F  0.37021143  0.05119252  0.56439030    -0.13000
F434        F  0.43180436  0.05181925  0.56469706    -0.15400
F435        F  0.31938646  0.44689778  0.60449196    -0.15400
F436        F  0.38090829  0.44746171  0.60484063    -0.13000
C437        C  0.12337671  0.02730827  0.57898131     0.25000
C438        C  0.09193453  0.99718747  0.58396536    -0.23100
C439        C  0.09312038  0.46521951  0.58656372     0.19900
C440        C  0.12458989  0.46491165  0.58635735     0.24900
C441        C  0.15556514  0.99638576  0.58329692    -0.23100
C442        C  0.15474453  0.02691822  0.57863896     0.19800
F443        F  0.18425788  0.05653593  0.57342496    -0.13000
F444        F  0.12388723  0.05720758  0.57403197    -0.15400
F445        F  0.12371702  0.43428402  0.58945474    -0.15400
F446        F  0.06315567  0.43485117  0.58985084    -0.13000
C447        C  0.01800629  0.98724960  0.65666881     0.25000
C448        C  0.49786815  0.99799957  0.64591738    -0.23100
C449        C  0.47832305  0.50724812  0.65618749     0.19900
C450        C  0.47758109  0.50705078  0.67724008     0.24900
C451        C  0.49676591  0.99769748  0.68837061    -0.23100
C452        C  0.01773374  0.98731335  0.67770228     0.19800
F453        F  0.03848777  0.97768010  0.68752759    -0.13000
F454        F  0.03859795  0.97743143  0.64675002    -0.15400
F455        F  0.45713061  0.51751519  0.68670415    -0.15400
F456        F  0.45890853  0.51797549  0.64584105    -0.13000
C457        C  0.26686720  0.23352888  0.82228514     0.25000
C458        C  0.24713242  0.24491546  0.81135347    -0.23100
C459        C  0.22722959  0.25641285  0.82209569     0.19900
C460        C  0.22767874  0.25725592  0.84313739     0.24900
C461        C  0.24798079  0.24654932  0.85406214    -0.23100
C462        C  0.26731490  0.23437119  0.84333987     0.19800
F463        F  0.28713169  0.22354383  0.85314132    -0.13000
F464        F  0.28622458  0.22188065  0.81269065    -0.15400
F465        F  0.20782432  0.26832481  0.85272982    -0.15400
F466        F  0.20693809  0.26669394  0.81232360    -0.13000
C467        C  0.27985236  0.51254280  0.82250210     0.25000
C468        C  0.24869018  0.99992166  0.81222478    -0.23100
C469        C  0.21760141  0.98931124  0.82300197     0.19900
C470        C  0.21772487  0.98929984  0.84408890     0.24900
C471        C  0.24894174  0.99987462  0.85464585    -0.23100
C472        C  0.27995129  0.51236430  0.84358296     0.19800
F473        F  0.31056940  0.52362157  0.85348757    -0.13000
F474        F  0.31036860  0.52388903  0.81238393    -0.15400
F475        F  0.18719247  0.97784455  0.85420394    -0.15400
F476        F  0.18695124  0.97781499  0.81309305    -0.13000
C477        C  0.40615438  0.12529757  0.91782378     0.25000
C478        C  0.40626690  0.15706200  0.91709531    -0.23100
C479        C  0.37401696  0.15624744  0.91593008     0.19900
C480        C  0.34265292  0.12467017  0.91557522     0.24900
C481        C  0.34252520  0.09290483  0.91644514    -0.23100
C482        C  0.37478920  0.09371972  0.91747765     0.19800
F483        F  0.37627981  0.06394985  0.91821834    -0.13000
F484        F  0.43641715  0.12450640  0.91894692    -0.15400
F485        F  0.31240592  0.12546274  0.91430186    -0.15400
F486        F  0.37254259  0.18601902  0.91505735    -0.13000
C487        C  0.09220024  0.37554291  0.91766893     0.25000
C488        C  0.09196274  0.34369774  0.91759010    -0.23100
C489        C  0.12417764  0.34433477  0.91740277     0.19900
C490        C  0.15561467  0.37580320  0.91705858     0.24900
C491        C  0.15585469  0.40764327  0.91690578    -0.23100
C492        C  0.12365774  0.40703118  0.91732367     0.19800
F493        F  0.12232489  0.43690690  0.91738175    -0.13000
F494        F  0.06197846  0.37649619  0.91805046    -0.15400
F495        F  0.18582946  0.37482358  0.91691711    -0.15400
F496        F  0.12556695  0.31449085  0.91756271    -0.13000
C497        C  0.98225730  0.26608547  0.84453311     0.25000
C498        C  0.49821051  0.25033814  0.85526768    -0.23100
C499        C  0.51341389  0.23405275  0.84429038     0.19900
C500        C  0.51272173  0.23355659  0.82323286     0.24900
C501        C  0.49688690  0.24941055  0.81248900    -0.23100
C502        C  0.98160656  0.26563047  0.82346633     0.19800
F503        F  0.96598348  0.28129369  0.81391102    -0.13000
F504        F  0.96717387  0.28210700  0.85432819    -0.15400
F505        F  0.52771262  0.21743263  0.81345493    -0.15400
F506        F  0.52909482  0.21843865  0.85383757    -0.13000
C507        C  0.37396683  0.40483226  0.91342108     0.25000
C508        C  0.40570153  0.40547461  0.91707238    -0.23100
C509        C  0.40488077  0.37378753  0.92053467     0.19900
C510        C  0.37331761  0.34242117  0.92033937     0.24900
C511        C  0.34159133  0.34175176  0.91662984    -0.23100
C512        C  0.34237676  0.37343365  0.91322144     0.19800
F513        F  0.31262230  0.37422187  0.90938340    -0.13000
F514        F  0.37331422  0.43455359  0.90971626    -0.15400
F515        F  0.37401000  0.31272420  0.92406403    -0.15400
F516        F  0.43460880  0.37292162  0.92433353    -0.13000
C517        C  0.09258263  0.12253620  0.91577717     0.25000
C518        C  0.09255307  0.09079151  0.91598132    -0.23100
C519        C  0.12485348  0.09161966  0.91586847     0.19900
C520        C  0.15620178  0.12323114  0.91583750     0.24900
C521        C  0.15619567  0.15496687  0.91591298    -0.23100
C522        C  0.12389254  0.15410864  0.91576423     0.19800
F523        F  0.12229026  0.18384034  0.91563614    -0.13000
F524        F  0.06227568  0.12333149  0.91558477    -0.15400
F525        F  0.18655147  0.12251154  0.91571146    -0.15400
F526        F  0.12638835  0.06185096  0.91578820    -0.13000
C527        C  0.50071906  0.52617044  0.82315054     0.25000
C528        C  0.49951672  0.99808440  0.81241925    -0.23100
C529        C  0.99933127  0.97050544  0.82295965     0.19900
C530        C  0.99957764  0.97028923  0.84402117     0.24900
C531        C  0.50000342  0.99764063  0.85492319    -0.23100
C532        C  0.50068855  0.52592504  0.84420885     0.19800
F533        F  0.50267372  0.55351567  0.85421593    -0.13000
F534        F  0.50266705  0.55393912  0.81338595    -0.15400
F535        F  0.99830316  0.94277364  0.85372329    -0.15400
F536        F  0.99784442  0.94317735  0.81290389    -0.13000
C537        C  0.21715481  0.23886171  0.98861498     0.25000
C538        C  0.24815423  0.24889722  0.97794040    -0.23100
C539        C  0.27916233  0.25903429  0.98852013     0.19900
C540        C  0.27932816  0.25937793  0.00955520     0.24900
C541        C  0.24820407  0.24893332  0.02044739    -0.23100
C542        C  0.21705046  0.23860689  0.00967806     0.19800
F543        F  0.18640474  0.22835872  0.01942777    -0.13000
F544        F  0.18673293  0.22833042  0.97862234    -0.15400
F545        F  0.31004397  0.26975014  0.01916122    -0.15400
F546        F  0.30955693  0.26942656  0.97844537    -0.13000
C547        C  0.21729971  0.37332909  0.08499919     0.25000
C548        C  0.24867166  0.40518348  0.08332260    -0.23100
C549        C  0.28027079  0.40470725  0.08187889     0.19900
C550        C  0.28043886  0.37331913  0.08194327     0.24900
C551        C  0.24901211  0.34144598  0.08339299    -0.23100
C552        C  0.21746908  0.34195710  0.08507142     0.19800
F553        F  0.18649009  0.31208087  0.08690724    -0.13000
F554        F  0.18616529  0.37226062  0.08668054    -0.15400
F555        F  0.31160087  0.37438764  0.08045784    -0.15400
F556        F  0.31127952  0.43461016  0.08023912    -0.13000
C557        C  0.27968149  0.15420183  0.07948441     0.25000
C558        C  0.24840064  0.15500213  0.08192957    -0.23100
C559        C  0.21704391  0.12329300  0.08433577     0.19900
C560        C  0.21703475  0.09180758  0.08452609     0.24900
C561        C  0.24836985  0.09103796  0.08227069    -0.23100
C562        C  0.27967604  0.12272202  0.07968067     0.19800
F563        F  0.31055447  0.12350150  0.07720889    -0.13000
F564        F  0.31054495  0.18388966  0.07673620    -0.15400
F565        F  0.18612821  0.06210261  0.08713367    -0.15400
F566        F  0.18614455  0.12250362  0.08672459    -0.13000
C567        C  0.23709261  0.01748872  0.98978194     0.25000
C568        C  0.24896990  0.99810063  0.97881525    -0.23100
C569        C  0.25969564  0.47877547  0.98927102     0.19900
C570        C  0.25939319  0.47835632  0.01035661     0.24900
C571        C  0.24736105  0.49746958  0.02112235    -0.23100
C572        C  0.23630622  0.01660321  0.01083765     0.19800
F573        F  0.22516486  0.03580154  0.02103478    -0.13000
F574        F  0.22660094  0.03774160  0.98023722    -0.15400
F575        F  0.27019781  0.45869255  0.02030688    -0.15400
F576        F  0.27071123  0.45916267  0.97943222    -0.13000
C577        C  0.96904148  0.22798585  0.01090895     0.25000
C578        C  0.49988060  0.24982372  0.02162695    -0.23100
C579        C  0.53048883  0.27180629  0.01068750     0.19900
C580        C  0.53023992  0.27168600  0.98962945     0.24900
C581        C  0.49946504  0.25003033  0.97917201    -0.23100
C582        C  0.96888349  0.22831204  0.98984918     0.19800
F583        F  0.93901272  0.20690872  0.97982687    -0.13000
F584        F  0.93909760  0.20586978  0.02071173    -0.15400
F585        F  0.55990413  0.29324513  0.97940420    -0.15400
F586        F  0.56059752  0.29388989  0.02028110    -0.13000
C587        C  0.03181144  0.40585788  0.07959200     0.25000
C588        C  0.50090380  0.40679248  0.08343608    -0.23100
C589        C  0.46998062  0.37527984  0.08719660     0.19900
C590        C  0.47001171  0.34382109  0.08729416     0.24900
C591        C  0.50096534  0.34290389  0.08362512    -0.23100
C592        C  0.03183746  0.37437455  0.07967914     0.19800
F593        F  0.06217106  0.37484804  0.07555440    -0.13000
F594        F  0.06214790  0.43536773  0.07541796    -0.15400
F595        F  0.43958038  0.31428966  0.09126531    -0.15400
F596        F  0.43953115  0.37470803  0.09108036    -0.13000
C597        C  0.03158822  0.15568406  0.08537255     0.25000
C598        C  0.50023174  0.15643816  0.08334315    -0.23100
C599        C  0.46883259  0.12474181  0.08116750     0.19900
C600        C  0.46876821  0.09323538  0.08117673     0.24900
C601        C  0.50011120  0.09248490  0.08335150    -0.23100
C602        C  0.03152735  0.12419867  0.08536946     0.19800
F603        F  0.06245592  0.12500135  0.08753437    -0.13000
F604        F  0.06257647  0.18541596  0.08756958    -0.15400
F605        F  0.43782179  0.06349664  0.07885172    -0.15400
F606        F  0.43796073  0.12399543  0.07881899    -0.13000
C607        C  0.02672299  0.99843029  0.01070632     0.25000
C608        C  0.50063722  0.50016500  0.02147945    -0.23100
C609        C  0.47444864  0.50260971  0.01085740     0.19900
C610        C  0.47442663  0.50282461  0.98977788     0.24900
C611        C  0.50009343  0.99988079  0.97890490    -0.23100
C612        C  0.02654846  0.99803745  0.98965305     0.19800
F613        F  0.05267851  0.99643594  0.97981561    -0.13000
F614        F  0.05245645  0.99625653  0.02056898    -0.15400
F615        F  0.44865650  0.50515979  0.98007400    -0.15400
F616        F  0.44921703  0.50554347  0.02087524    -0.13000
C617        C  0.23235331  0.22072642  0.48884632     0.25000
C618        C  0.25147125  0.25167373  0.47780555    -0.23100
C619        C  0.27139604  0.28295010  0.48842931     0.19900
C620        C  0.27185106  0.28329031  0.50949738     0.24900
C621        C  0.25243950  0.25236309  0.52053072    -0.23100
C622        C  0.23282830  0.22106149  0.50988745     0.19800
F623        F  0.21358965  0.19052250  0.51975755    -0.13000
F624        F  0.21274397  0.18989631  0.47937186    -0.15400
F625        F  0.29168384  0.31404360  0.51900474    -0.15400
F626        F  0.29090454  0.31339542  0.47851322    -0.13000
C627        C  0.24022843  0.01910332  0.51117451     0.25000
C628        C  0.24798408  0.99611760  0.52146063    -0.23100
C629        C  0.25545807  0.47284104  0.51024902     0.19900
C630        C  0.25544228  0.47383127  0.48914816     0.24900
C631        C  0.24796534  0.99765473  0.47896851    -0.23100
C632        C  0.24022453  0.01987048  0.49011423     0.19800
F633        F  0.23174428  0.04170203  0.48059267    -0.13000
F634        F  0.23175774  0.04023452  0.52154981    -0.15400
F635        F  0.26357934  0.45259951  0.47861316    -0.15400
F636        F  0.26353324  0.45063439  0.51967483    -0.13000
C637        C  0.49051876  0.22009726  0.51063038     0.25000
C638        C  0.49932717  0.25087363  0.52123209    -0.23100
C639        C  0.00807044  0.28117296  0.51016105     0.19900
C640        C  0.00819629  0.28079234  0.48909961     0.24900
C641        C  0.49959008  0.25009134  0.47847149    -0.23100
C642        C  0.49067490  0.21971667  0.48953588     0.19800
F643        F  0.48262660  0.18959156  0.48002004    -0.13000
F644        F  0.48233323  0.19031817  0.52061508    -0.15400
F645        F  0.01629188  0.31059795  0.47917526    -0.15400
F646        F  0.01603179  0.31129591  0.51965161    -0.13000
C647        C  0.37274529  0.27732043  0.42512868     0.25000
C648        C  0.34301163  0.24989911  0.41613788    -0.23100
C649        C  0.34534891  0.22226868  0.40741107     0.19900
C650        C  0.37687093  0.22214838  0.40759622     0.24900
C651        C  0.40665977  0.24967540  0.41649592    -0.23100
C652        C  0.40426791  0.27722422  0.42529193     0.19800
F653        F  0.43222950  0.30372284  0.43451969    -0.13000
F654        F  0.37114209  0.30385361  0.43425416    -0.15400
F655        F  0.37844241  0.19556396  0.39851492    -0.15400
F656        F  0.31738865  0.19580013  0.39815930    -0.13000
C657        C  0.12496567  0.28174498  0.41252268     0.25000
C658        C  0.09316785  0.25053053  0.41499503    -0.23100
C659        C  0.09385042  0.21929895  0.41692256     0.19900
C660        C  0.12544409  0.21935535  0.41683549     0.24900
C661        C  0.15731020  0.25065639  0.41484515    -0.23100
C662        C  0.15659884  0.28181393  0.41247963     0.19800
F663        F  0.18648848  0.31257497  0.40999826    -0.13000
F664        F  0.12569327  0.31242169  0.40998850    -0.15400
F665        F  0.12457119  0.18853019  0.41889713    -0.15400
F666        F  0.06395725  0.18844041  0.41909850    -0.13000
C667        C  0.02279032  0.03078452  0.51158869     0.25000
C668        C  0.00067550  0.99997419  0.52214728    -0.23100
C669        C  0.47786159  0.47139532  0.51104878     0.19900
C670        C  0.47797264  0.47228481  0.49001171     0.24900
C671        C  0.00107761  0.00129770  0.47945230    -0.23100
C672        C  0.02295435  0.03144062  0.49053615     0.19800
F673        F  0.04508331  0.06164027  0.48107031    -0.13000
F674        F  0.04478385  0.06040467  0.52155742    -0.15400
F675        F  0.45465286  0.44337545  0.47994634    -0.15400
F676        F  0.45444128  0.44165883  0.52045163    -0.13000
C677        C  0.37798966  0.47395721  0.41164212     0.29800
C678        C  0.40823158  0.00288595  0.41730331    -0.23100
C679        C  0.40671389  0.03269875  0.42283786     0.19900
C680        C  0.37496765  0.03242268  0.42282361     0.24900
C681        C  0.34389014  0.00232185  0.41724421    -0.23100
C682        C  0.34626949  0.47370964  0.41166011     0.19800
F683        F  0.31710391  0.44421575  0.40595856    -0.13000
F684        F  0.37818720  0.44474663  0.40584184    -0.15400
F685        F  0.37476716  0.06163681  0.42861634    -0.15400
F686        F  0.43585368  0.06211206  0.42866475    -0.13000
C687        C  0.15359664  0.02573286  0.42920524     0.25000
C688        C  0.15780679  0.00243958  0.41678224    -0.23100
C689        C  0.13064597  0.47991836  0.40539982     0.19900
C690        C  0.09909966  0.48003930  0.40551599     0.24900
C691        C  0.09441751  0.00301246  0.41694320    -0.23100
C692        C  0.12212019  0.02599946  0.42929823     0.19800
F693        F  0.11830540  0.04791522  0.44195567    -0.13000
F694        F  0.17959090  0.04746878  0.44173809    -0.15400
F695        F  0.07286678  0.45768541  0.39331785    -0.15400
F696        F  0.13422883  0.45747354  0.39308138    -0.13000
C697        C  0.28048333  0.26997966  0.15532031     0.25000
C698        C  0.24937858  0.24926048  0.14462934    -0.23100
C699        C  0.21822002  0.22965514  0.15556193     0.19900
C700        C  0.21822555  0.23037733  0.17659242     0.24900
C701        C  0.24940352  0.25068885  0.18729664    -0.23100
C702        C  0.28048737  0.27069908  0.17636749     0.19800
F703        F  0.31103560  0.29147026  0.18596157    -0.13000
F704        F  0.31103736  0.29008561  0.14548848    -0.15400
F705        F  0.18753723  0.21072173  0.18639249    -0.15400
F706        F  0.18752692  0.20934648  0.14599068    -0.13000
C707        C  0.27676836  0.27773996  0.32188777     0.25000
C708        C  0.24953721  0.25030753  0.31125229    -0.23100
C709        C  0.22257737  0.22273149  0.32203712     0.19900
C710        C  0.22306796  0.22240664  0.34308211     0.24900
C711        C  0.25027829  0.24990408  0.35373314    -0.23100
C712        C  0.27708588  0.27760342  0.34292044     0.19800
F713        F  0.30401861  0.30435320  0.35267310    -0.13000
F714        F  0.30277209  0.30514581  0.31194273    -0.15400
F715        F  0.19650457  0.19547829  0.35301303    -0.15400
F716        F  0.19603272  0.19569632  0.31222519    -0.13000
C717        C  0.28251376  0.37582320  0.24959975     0.25000
C718        C  0.25065649  0.34418131  0.25003538    -0.23100
C719        C  0.21937318  0.34527020  0.25098664     0.19900
C720        C  0.21989848  0.37698109  0.25139201     0.24900
C721        C  0.25173485  0.40862759  0.25083360    -0.23100
C722        C  0.28304006  0.40754964  0.25001055     0.19800
F723        F  0.31444090  0.43719136  0.24954228    -0.13000
F724        F  0.31346832  0.37635537  0.24873010    -0.15400
F725        F  0.18893745  0.37641970  0.25233971    -0.15400
F726        F  0.18797146  0.31563959  0.25156393    -0.13000
C727        C  0.21892109  0.09437151  0.24771680     0.25000
C728        C  0.25051359  0.09409420  0.24994525    -0.23100
C729        C  0.28163961  0.12602210  0.25205153     0.19900
C730        C  0.28123054  0.15727757  0.25190009     0.24900
C731        C  0.24966947  0.15758788  0.24960485    -0.23100
C732        C  0.21851061  0.12564574  0.24755834     0.19800
F733        F  0.18740368  0.12441460  0.24523445    -0.13000
F734        F  0.18817776  0.06438016  0.24548956    -0.15400
F735        F  0.31197646  0.18723423  0.25419508    -0.15400
F736        F  0.31273456  0.12725888  0.25445102    -0.13000
C737        C  0.28083394  0.52042776  0.17685495     0.25000
C738        C  0.25023575  0.49963729  0.18803135    -0.23100
C739        C  0.21967593  0.97757963  0.17748643     0.19900
C740        C  0.21932365  0.97710477  0.15641614     0.24900
C741        C  0.24918135  0.49871740  0.14524317    -0.23100
C742        C  0.28031799  0.51997104  0.15578755     0.19800
F743        F  0.31045411  0.54087223  0.14578325    -0.13000
F744        F  0.31142353  0.54179566  0.18623573    -0.15400
F745        F  0.18943478  0.95415660  0.14693996    -0.15400
F746        F  0.19010773  0.95509525  0.18747934    -0.13000
C747        C  0.28408313  0.01944222  0.32342382     0.25000
C748        C  0.25387720  0.50550889  0.31267501    -0.23100
C749        C  0.22222466  0.48964734  0.32359913     0.19900
C750        C  0.22226146  0.49060249  0.34463844     0.24900
C751        C  0.25239790  0.00505491  0.35517067    -0.23100
C752        C  0.28399613  0.02050538  0.34451773     0.19800
F753        F  0.31479172  0.03558538  0.35458249    -0.13000
F754        F  0.31527051  0.03392052  0.31371725    -0.15400
F755        F  0.19138088  0.47508213  0.35469874    -0.15400
F756        F  0.19100621  0.47291697  0.31403413    -0.13000
C757        C  0.02419067  0.24210281  0.17731735     0.25000
C758        C  0.50221263  0.25089303  0.18801647    -0.23100
C759        C  0.47951654  0.25869298  0.17737642     0.19900
C760        C  0.47907982  0.25809660  0.15632068     0.24900
C761        C  0.50130453  0.24966502  0.14561289    -0.23100
C762        C  0.02375119  0.24150560  0.15624571     0.19800
F763        F  0.04440732  0.23186978  0.14623780    -0.13000
F764        F  0.04520067  0.23295140  0.18729010    -0.15400
F765        F  0.45776208  0.26686308  0.14636626    -0.15400
F766        F  0.45853609  0.26793268  0.18736524    -0.13000
C767        C  0.99451293  0.22134029  0.32206996     0.25000
C768        C  0.50332062  0.25193527  0.31155036    -0.23100
C769        C  0.51083273  0.28208830  0.32216571     0.19900
C770        C  0.50937631  0.28168412  0.34322102     0.24900
C771        C  0.50074112  0.25103710  0.35400421    -0.23100
C772        C  0.99337471  0.22084378  0.34312530     0.19800
F773        F  0.98556278  0.19089478  0.35278388    -0.13000
F774        F  0.98748854  0.19203962  0.31190658    -0.15400
F775        F  0.51581147  0.31116541  0.35295236    -0.15400
F776        F  0.51880112  0.31172865  0.31207991    -0.13000
C777        C  0.47268610  0.37763612  0.25067602     0.25000
C778        C  0.50422729  0.40952563  0.25089716    -0.23100
C779        C  0.03586512  0.40899251  0.25091258     0.19900
C780        C  0.03591100  0.37751024  0.25061390     0.24900
C781        C  0.50431412  0.34562790  0.25031943    -0.23100
C782        C  0.47273189  0.34622551  0.25037847     0.19800
F783        F  0.44152249  0.31636630  0.25007896    -0.13000
F784        F  0.44143839  0.37653402  0.25070502    -0.15400
F785        F  0.06710600  0.37849148  0.25064827    -0.15400
F786        F  0.06702121  0.43892550  0.25121452    -0.13000
C787        C  0.47076715  0.12671512  0.24784487     0.25000
C788        C  0.50220174  0.15847269  0.24981938    -0.23100
C789        C  0.03355166  0.15773852  0.25189124     0.19900
C790        C  0.03348494  0.12627312  0.25211777     0.24900
C791        C  0.50207095  0.09449511  0.25024502    -0.23100
C792        C  0.47070328  0.09518289  0.24806985     0.19800
F793        F  0.43976144  0.06536772  0.24596114    -0.13000
F794        F  0.43987162  0.12593061  0.24553206    -0.15400
F795        F  0.06445715  0.12718859  0.25434452    -0.15400
F796        F  0.06459447  0.18749311  0.25384425    -0.13000
C797        C  0.03234337  0.01141307  0.15624797     0.25000
C798        C  0.50145839  0.50107777  0.14581582    -0.23100
C799        C  0.47041501  0.49010119  0.15685075     0.19900
C800        C  0.47073012  0.49038239  0.17793017     0.24900
C801        C  0.50211079  0.50170194  0.18859625    -0.23100
C802        C  0.03288449  0.01200509  0.17730262     0.19800
F803        F  0.06381931  0.02274365  0.18673339    -0.13000
F804        F  0.06280889  0.02161351  0.14630441    -0.15400
F805        F  0.44014170  0.47983237  0.18781537    -0.15400
F806        F  0.43955982  0.47937898  0.14732723    -0.13000
C807        C  0.47631621  0.47638498  0.34479077     0.25000
C808        C  0.00241885  0.00425360  0.35525613    -0.23100
C809        C  0.02968758  0.03160052  0.34447242     0.19900
C810        C  0.03035126  0.03095352  0.32339352     0.24900
C811        C  0.00350063  0.00320569  0.31268791    -0.23100
C812        C  0.47651198  0.47589489  0.32374806     0.19800
F813        F  0.45052945  0.44822904  0.31403009    -0.13000
F814        F  0.44960133  0.44959785  0.35472391    -0.15400
F815        F  0.05692734  0.05787056  0.31346767    -0.15400
F816        F  0.05614469  0.05866956  0.35430824    -0.13000
O817        O  0.03140804  0.51597196  0.22048718    -0.71500
O818        O  0.03236704  0.51736214  0.28093507    -0.72500
O819        O  0.03325138  0.97202195  0.25061795    -0.61100
O820        O  0.03120571  0.56120155  0.25044353    -0.69600
O821        O  0.47353112  0.53232309  0.25102013    -0.69100
O822        O  0.47556239  0.94278505  0.25071357    -0.60400
O823        O  0.47477728  0.98753920  0.28090843    -0.72900
O824        O  0.47388121  0.98720247  0.22064859    -0.71700
Cu825      Cu  0.03390912  0.51756150  0.25069808     1.04600
Cu826      Cu  0.47246042  0.98640452  0.25079020     1.04300
C827        C  0.50252727  0.00158615  0.21080773     0.94600
C828        C  0.00353077  0.50269338  0.29061078     0.93800
C829        C  0.00465503  0.94311705  0.25061370     0.85900
C830        C  0.00226319  0.56110214  0.25067749     0.92200
O831        O  0.47600880  0.78388270  0.24972161    -0.71500
O832        O  0.47412520  0.69269446  0.24999450    -0.72500
O833        O  0.47453721  0.73836472  0.27998798    -0.61100
O834        O  0.47517456  0.73819475  0.21975431    -0.69600
O835        O  0.03301308  0.76497622  0.21962870    -0.69100
O836        O  0.03228075  0.76666368  0.28021383    -0.60400
O837        O  0.03179489  0.72060112  0.25048153    -0.72900
O838        O  0.03370053  0.81184174  0.24935171    -0.71700
Cu839      Cu  0.47299493  0.73734648  0.24985181     1.04600
Cu840      Cu  0.03473808  0.76702884  0.24992157     1.04300
C841        C  0.50504185  0.81236273  0.24954575     0.94600
C842        C  0.50275581  0.69215071  0.25029395     0.93800
C843        C  0.50322837  0.75252313  0.28970907     0.85900
C844        C  0.50403373  0.75124770  0.21016851     0.92200
O845        O  0.28224607  0.51770915  0.28034049    -0.71500
O846        O  0.27997164  0.51496894  0.21978753    -0.72500
O847        O  0.28087000  0.56137427  0.24957283    -0.61100
O848        O  0.28010024  0.97046828  0.25018479    -0.69600
O849        O  0.22244161  0.94211908  0.25062475    -0.69100
O850        O  0.22321143  0.53254032  0.25017203    -0.60400
O851        O  0.22190170  0.98657915  0.22027367    -0.72900
O852        O  0.22318660  0.98782658  0.28068863    -0.71700
Cu853      Cu  0.28306985  0.51723680  0.25001792     1.04600
Cu854      Cu  0.22048517  0.98615825  0.25050023     1.04300
C855        C  0.25215898  0.00242684  0.29016608     0.94600
C856        C  0.25059453  0.00080414  0.21044554     0.93800
C857        C  0.25190712  0.56129748  0.24978005     0.85900
C858        C  0.25117648  0.94183161  0.25038150     0.92200
O859        O  0.22062786  0.73654031  0.21949291    -0.71500
O860        O  0.22037353  0.73549052  0.27971112    -0.72500
O861        O  0.22063548  0.78143255  0.24986606    -0.61100
O862        O  0.22092842  0.69106831  0.24937209    -0.69600
O863        O  0.27859726  0.72001306  0.24960095    -0.69100
O864        O  0.27830460  0.80987194  0.24947017    -0.60400
O865        O  0.27820383  0.76503151  0.27966198    -0.72900
O866        O  0.27832122  0.76484826  0.21934547    -0.71700
Cu867      Cu  0.21861417  0.73513910  0.24960191     1.04600
Cu868      Cu  0.28033448  0.76592052  0.24951373     1.04300
C869        C  0.24942804  0.75073751  0.20980194     0.94600
C870        C  0.24926295  0.75013017  0.28922285     0.93800
C871        C  0.24954202  0.81009726  0.24972430     0.85900
C872        C  0.24992589  0.69121204  0.24951944     0.92200
O873        O  0.01587420  0.53234058  0.44783993    -0.71500
O874        O  0.01774037  0.53321372  0.38736307    -0.72500
O875        O  0.47145396  0.53288226  0.41725149    -0.61100
O876        O  0.06204529  0.53279090  0.41817227    -0.69600
O877        O  0.03247993  0.97438999  0.41646958    -0.69100
O878        O  0.44198691  0.97439373  0.41740634    -0.60400
O879        O  0.48704666  0.97520411  0.38694090    -0.72900
O880        O  0.48735391  0.97360266  0.44719377    -0.71700
Cu881      Cu  0.01778769  0.53484716  0.41765665     1.04600
Cu882      Cu  0.48622712  0.97242507  0.41700328     1.04300
C883        C  0.00165820  0.50337674  0.45721558     0.94600
C884        C  0.00287448  0.50452485  0.37771736     0.93800
C885        C  0.44266503  0.50415377  0.41726776     0.85900
C886        C  0.06183289  0.50395693  0.41761951     0.92200
O887        O  0.01387093  0.77766192  0.44652640    -0.71500
O888        O  0.01517592  0.77871075  0.38622054    -0.72500
O889        O  0.46946750  0.77854588  0.41628094    -0.61100
O890        O  0.05942042  0.77757743  0.41647073    -0.69600
O891        O  0.03036474  0.72014202  0.41615987    -0.69100
O892        O  0.44034982  0.72101307  0.41602333    -0.60400
O893        O  0.48556017  0.72105777  0.38588983    -0.72900
O894        O  0.48489985  0.72024343  0.44647767    -0.71700
Cu895      Cu  0.01549632  0.78010465  0.41639464     1.04600
Cu896      Cu  0.48428048  0.71858188  0.41614291     1.04300
C897        C  0.49912999  0.74893742  0.45613226     0.94600
C898        C  0.50051988  0.75007621  0.37659591     0.93800
C899        C  0.44064167  0.74989107  0.41605635     0.85900
C900        C  0.05925094  0.74875151  0.41624868     0.92200
O901        O  0.22058900  0.53214909  0.41777309    -0.71500
O902        O  0.31095310  0.53196197  0.41832588    -0.72500
O903        O  0.26804752  0.53470008  0.38762338    -0.61100
O904        O  0.26353921  0.52909027  0.44817140    -0.69600
O905        O  0.23537961  0.97102575  0.44658500    -0.69100
O906        O  0.23655142  0.97501252  0.38627352    -0.60400
O907        O  0.28148499  0.97334428  0.41616835    -0.72900
O908        O  0.19068839  0.97325884  0.41640586    -0.71700
Cu909      Cu  0.26678722  0.53400095  0.41802530     1.04600
Cu910      Cu  0.23501892  0.97115164  0.41632291     1.04300
C911        C  0.19187753  0.50341241  0.41722480     0.94600
C912        C  0.31113837  0.50337257  0.41713993     0.93800
C913        C  0.25326017  0.50660523  0.37741945     0.85900
C914        C  0.24945473  0.49947638  0.45684004     0.92200
O915        O  0.23527990  0.72012057  0.38582615    -0.71500
O916        O  0.23689346  0.72122106  0.44622741    -0.72500
O917        O  0.19064028  0.72020420  0.41639017    -0.61100
O918        O  0.28148013  0.72094144  0.41555540    -0.69600
O919        O  0.30995864  0.77846465  0.41584956    -0.69100
O920        O  0.21910408  0.77761627  0.41571128    -0.60400
O921        O  0.26472840  0.77862646  0.44585760    -0.72900
O922        O  0.26456446  0.77762267  0.38568481    -0.71700
Cu923      Cu  0.23508232  0.71859556  0.41602312     1.04600
Cu924      Cu  0.26555548  0.78005797  0.41576061     1.04300
C925        C  0.24985900  0.74882866  0.37619204     0.94600
C926        C  0.25098594  0.75011977  0.45565627     0.93800
C927        C  0.19040790  0.74882321  0.41605287     0.85900
C928        C  0.31009931  0.74980281  0.41564216     0.92200
O929        O  0.47114281  0.98581058  0.05328838    -0.71500
O930        O  0.47145918  0.98505718  0.11378586    -0.72500
O931        O  0.47190329  0.53070182  0.08366196    -0.61100
O932        O  0.47122786  0.94003302  0.08322479    -0.69600
O933        O  0.02891333  0.96848980  0.08332442    -0.69100
O934        O  0.02958722  0.55916792  0.08316076    -0.60400
O935        O  0.02986913  0.51459231  0.11360903    -0.72900
O936        O  0.02958837  0.51365735  0.05322759    -0.71700
Cu937      Cu  0.46923673  0.98427764  0.08352678     1.04600
Cu938      Cu  0.03168448  0.51506652  0.08340179     1.04300
C939        C  0.50008018  0.99987001  0.04370174     0.94600
C940        C  0.50043868  0.99961855  0.12326395     0.93800
C941        C  0.50076195  0.55933583  0.08331429     0.85900
C942        C  0.50004686  0.93983609  0.08318252     0.92200
O943        O  0.47197371  0.69024102  0.08389184    -0.71500
O944        O  0.47165851  0.78034779  0.08376008    -0.72500
O945        O  0.47120054  0.73481187  0.05369547    -0.61100
O946        O  0.47252048  0.73582467  0.11408894    -0.69600
O947        O  0.03037913  0.76314810  0.11361094    -0.69100
O948        O  0.02894822  0.76436196  0.05332605    -0.60400
O949        O  0.02934943  0.80901180  0.08390920    -0.72900
O950        O  0.02964877  0.71882407  0.08285500    -0.71700
Cu951      Cu  0.46982664  0.73430978  0.08389702     1.04600
Cu952      Cu  0.03158301  0.76486378  0.08342447     1.04300
C953        C  0.50082205  0.69015072  0.08323516     0.94600
C954        C  0.50044900  0.80906496  0.08374021     0.93800
C955        C  0.49993677  0.74953201  0.04392327     0.85900
C956        C  0.00165374  0.74934409  0.12336933     0.92200
O957        O  0.22013002  0.98405573  0.11350076    -0.71500
O958        O  0.21913833  0.98365365  0.05305326    -0.72500
O959        O  0.21981952  0.93870797  0.08327707    -0.61100
O960        O  0.21912513  0.52878491  0.08327268    -0.69600
O961        O  0.27678304  0.55726161  0.08234073    -0.69100
O962        O  0.27751678  0.96726378  0.08354415    -0.60400
O963        O  0.27665246  0.51120195  0.05253908    -0.72900
O964        O  0.27737530  0.51296646  0.11296494    -0.71700
Cu965      Cu  0.21765108  0.98280376  0.08328473     1.04600
Cu966      Cu  0.27899838  0.51318766  0.08273830     1.04300
C967        C  0.24913056  0.99896888  0.12293927     0.94600
C968        C  0.24797943  0.99701960  0.04342687     0.93800
C969        C  0.24868583  0.93860714  0.08346286     0.85900
C970        C  0.24796817  0.55744750  0.08274504     0.92200
O971        O  0.27782491  0.80785919  0.08276067    -0.71500
O972        O  0.27737204  0.71728995  0.08245632    -0.72500
O973        O  0.27754564  0.76271384  0.05244172    -0.61100
O974        O  0.27781102  0.76263515  0.11270607    -0.69600
O975        O  0.22011593  0.73403330  0.11285022    -0.69100
O976        O  0.21975341  0.73474229  0.05253771    -0.60400
O977        O  0.21969716  0.68897303  0.08241240    -0.72900
O978        O  0.22012732  0.77938160  0.08305388    -0.71700
Cu979      Cu  0.27964425  0.76358615  0.08257609     1.04600
Cu980      Cu  0.21792834  0.73326918  0.08271342     1.04300
C981        C  0.24898822  0.80800842  0.08304354     0.94600
C982        C  0.24845373  0.68867531  0.08239497     0.93800
C983        C  0.24864453  0.74888150  0.04292245     0.85900
C984        C  0.24900214  0.74856197  0.12239380     0.92200
O985        O  0.48505620  0.51246290  0.88654964    -0.71500
O986        O  0.48471110  0.51293805  0.94688110    -0.72500
O987        O  0.03006048  0.55733933  0.91643924    -0.61100
O988        O  0.43970197  0.96718130  0.91674595    -0.69600
O989        O  0.46858020  0.93840518  0.91746799    -0.69100
O990        O  0.05900519  0.52860872  0.91611476    -0.60400
O991        O  0.01443542  0.98465263  0.94719509    -0.72900
O992        O  0.01355588  0.98241332  0.88679127    -0.71700
Cu993      Cu  0.48380034  0.51355659  0.91667168     1.04600
Cu994      Cu  0.01494940  0.98245942  0.91700160     1.04300
C995        C  0.99917601  0.49760798  0.87705260     0.94600
C996        C  0.99980079  0.49926792  0.95656039     0.93800
C997        C  0.05895323  0.55734196  0.91599740     0.85900
C998        C  0.43967164  0.93841520  0.91709973     0.92200
O999        O  0.46912422  0.69016606  0.91726834    -0.71500
O1000       O  0.05950707  0.78032946  0.91747621    -0.72500
O1001       O  0.01453106  0.73487500  0.94757593    -0.61100
O1002       O  0.01424365  0.73569200  0.88716977    -0.69600
O1003       O  0.48549602  0.76461364  0.88757973    -0.69100
O1004       O  0.48467274  0.76297389  0.94788050    -0.60400
O1005       O  0.03038620  0.80887742  0.91808814    -0.72900
O1006       O  0.44010426  0.71882802  0.91737117    -0.71700
Cu1007     Cu  0.01537035  0.73425943  0.91736793     1.04600
Cu1008     Cu  0.48417991  0.76482848  0.91774975     1.04300
C1009       C  0.44018896  0.69012498  0.91718153     0.94600
C1010       C  0.05935711  0.80900412  0.91783903     0.93800
C1011       C  0.49956712  0.74877221  0.95717195     0.85900
C1012       C  0.49976194  0.75023563  0.87773595     0.92200
O1013       O  0.30883944  0.53100476  0.91637638    -0.71500
O1014       O  0.21922742  0.94022321  0.91623774    -0.72500
O1015       O  0.26473772  0.98631293  0.88617112    -0.61100
O1016       O  0.26411523  0.98466117  0.94663649    -0.69600
O1017       O  0.23508554  0.51476066  0.94667503    -0.69100
O1018       O  0.23357267  0.51458674  0.88627361    -0.60400
O1019       O  0.18989825  0.96854706  0.91716819    -0.72900
O1020       O  0.27993459  0.55977308  0.91615113    -0.71700
Cu1021     Cu  0.26539880  0.98448365  0.91638614     1.04600
Cu1022     Cu  0.23349878  0.51577198  0.91649238     1.04300
C1023       C  0.30884491  0.55974282  0.91623887     0.94600
C1024       C  0.19018532  0.93995191  0.91684802     0.93800
C1025       C  0.24886939  0.50115847  0.87653402     0.85900
C1026       C  0.24898826  0.49969473  0.95614695     0.92200
O1027       O  0.23431577  0.76214199  0.88591624    -0.71500
O1028       O  0.23344886  0.76219427  0.94621305    -0.72500
O1029       O  0.27923110  0.80762434  0.91620983    -0.61100
O1030       O  0.18915530  0.71698805  0.91584380    -0.69600
O1031       O  0.21854148  0.68870606  0.91633260    -0.69100
O1032       O  0.30841790  0.77914216  0.91614410    -0.60400
O1033       O  0.26352625  0.73445901  0.94642570    -0.72900
O1034       O  0.26328885  0.73342242  0.88612174    -0.71700
Cu1035     Cu  0.23304293  0.76325701  0.91604578     1.04600
Cu1036     Cu  0.26447649  0.73297883  0.91627238     1.04300
C1037       C  0.24846292  0.74732117  0.87640482     0.94600
C1038       C  0.24847033  0.74844626  0.95587186     0.93800
C1039       C  0.30824534  0.80780282  0.91626252     0.85900
C1040       C  0.18950440  0.68840146  0.91589433     0.92200
O1041       O  0.44004735  0.97054612  0.58459566    -0.71500
O1042       O  0.02973471  0.96918820  0.58387183    -0.72500
O1043       O  0.48515181  0.96949383  0.61435441    -0.61100
O1044       O  0.48491631  0.97053709  0.55397154    -0.69600
O1045       O  0.01610328  0.52819916  0.55449534    -0.69100
O1046       O  0.01355452  0.52570120  0.61471000    -0.60400
O1047       O  0.05971393  0.52583683  0.58483759    -0.72900
O1048       O  0.47018809  0.52778393  0.58431521    -0.71700
Cu1049     Cu  0.48393017  0.96793443  0.58418545     1.04600
Cu1050     Cu  0.01597319  0.52889188  0.58462354     1.04300
C1051       C  0.44132042  0.49918648  0.58462922     0.94600
C1052       C  0.05937633  0.49693398  0.58397660     0.93800
C1053       C  0.99941358  0.49654675  0.62382424     0.85900
C1054       C  0.00094203  0.49991307  0.54452401     0.92200
O1055       O  0.01549625  0.78017007  0.55289221    -0.71500
O1056       O  0.01508815  0.78249184  0.61341049    -0.72500
O1057       O  0.06064459  0.78104982  0.58352428    -0.61100
O1058       O  0.47053818  0.78182414  0.58253024    -0.69600
O1059       O  0.44160614  0.72433293  0.58468356    -0.69100
O1060       O  0.03186313  0.72366544  0.58323971    -0.60400
O1061       O  0.48836606  0.72494756  0.61403251    -0.72900
O1062       O  0.48520122  0.72278540  0.55368238    -0.71700
Cu1063     Cu  0.01650367  0.78340444  0.58307575     1.04600
Cu1064     Cu  0.48574156  0.72193704  0.58392888     1.04300
C1065       C  0.49998516  0.75110089  0.54366456     0.94600
C1066       C  0.50185270  0.75398854  0.62324044     0.93800
C1067       C  0.06069626  0.75231806  0.58337721     0.85900
C1068       C  0.44184738  0.75315730  0.58357823     0.92200
O1069       O  0.28088838  0.96925784  0.58407461    -0.71500
O1070       O  0.18952944  0.96784421  0.58356612    -0.72500
O1071       O  0.23543567  0.96761365  0.55341491    -0.61100
O1072       O  0.23560737  0.96936098  0.61400036    -0.69600
O1073       O  0.26385500  0.52648461  0.61338748    -0.69100
O1074       O  0.26348277  0.52464580  0.55304860    -0.60400
O1075       O  0.21857383  0.52469205  0.58311204    -0.72900
O1076       O  0.30972000  0.52652448  0.58331066    -0.71700
Cu1077     Cu  0.23434720  0.96647029  0.58377412     1.04600
Cu1078     Cu  0.26493670  0.52755897  0.58317956     1.04300
C1079       C  0.31034289  0.49810966  0.58393759     0.94600
C1080       C  0.19001219  0.49583953  0.58327520     0.93800
C1081       C  0.24964040  0.49570217  0.54370167     0.85900
C1082       C  0.25000469  0.49791934  0.62313633     0.92200
O1083       O  0.26586169  0.78117969  0.55255701    -0.71500
O1084       O  0.26603775  0.78119045  0.61303402    -0.72500
O1085       O  0.31166281  0.78177954  0.58243673    -0.61100
O1086       O  0.22074706  0.78094775  0.58299826    -0.69600
O1087       O  0.19233462  0.72355786  0.58326576    -0.69100
O1088       O  0.28324892  0.72416088  0.58282767    -0.60400
O1089       O  0.23830039  0.72356485  0.61298062    -0.72900
O1090       O  0.23750798  0.72376619  0.55283552    -0.71700
Cu1091     Cu  0.26709467  0.78330813  0.58275950     1.04600
Cu1092     Cu  0.23684580  0.72177951  0.58295202     1.04300
C1093       C  0.25158445  0.75233528  0.54308010     0.94600
C1094       C  0.25222951  0.75230055  0.62248715     0.93800
C1095       C  0.31176965  0.75309656  0.58264430     0.85900
C1096       C  0.19204957  0.75218253  0.58325532     0.92200
O1097       O  0.46658392  0.93856685  0.75062972    -0.71500
O1098       O  0.05808601  0.52806658  0.74995399    -0.72500
O1099       O  0.01260765  0.98324588  0.78037394    -0.61100
O1100       O  0.01114050  0.98335108  0.72025978    -0.69600
O1101       O  0.48303611  0.51090327  0.72016764    -0.69100
O1102       O  0.48506567  0.51309784  0.78059102    -0.60400
O1103       O  0.02928773  0.55697467  0.74960698    -0.72900
O1104       O  0.43766445  0.96732451  0.75126390    -0.71700
Cu1105     Cu  0.01284530  0.98237707  0.75028508     1.04600
Cu1106     Cu  0.48295564  0.51296783  0.75037238     1.04300
C1107       C  0.43769226  0.93856256  0.75106484     0.94600
C1108       C  0.05813262  0.55683611  0.74954658     0.93800
C1109       C  0.49940777  0.49846363  0.79007543     0.85900
C1110       C  0.49755018  0.49643630  0.71063944     0.92200
O1111       O  0.01106810  0.73495342  0.78033590    -0.71500
O1112       O  0.01280867  0.73733261  0.72004821    -0.72500
O1113       O  0.05698811  0.78106152  0.75087200    -0.61100
O1114       O  0.46658694  0.69107089  0.74953774    -0.69600
O1115       O  0.43757769  0.71973759  0.74975441    -0.69100
O1116       O  0.02812027  0.80985737  0.75106499    -0.60400
O1117       O  0.48388687  0.76609568  0.72009741    -0.72900
O1118       O  0.48215036  0.76370229  0.78066026    -0.71700
Cu1119     Cu  0.01281181  0.73509631  0.75018671     1.04600
Cu1120     Cu  0.48188086  0.76582123  0.75040238     1.04300
C1121       C  0.49665308  0.74921211  0.79014332     0.94600
C1122       C  0.49881319  0.75216041  0.71043458     0.93800
C1123       C  0.05700245  0.80982027  0.75119246     0.85900
C1124       C  0.43765062  0.69102010  0.74945384     0.92200
O1125       O  0.21751006  0.94004179  0.75097970    -0.71500
O1126       O  0.30743211  0.53130230  0.74940600    -0.72500
O1127       O  0.26389294  0.98612362  0.78056028    -0.61100
O1128       O  0.26248114  0.98431427  0.72017158    -0.69600
O1129       O  0.23303391  0.51349979  0.71961796    -0.69100
O1130       O  0.23267967  0.51453552  0.78013005    -0.60400
O1131       O  0.27789863  0.55945503  0.74961483    -0.72900
O1132       O  0.18857895  0.96876453  0.75022666    -0.71700
Cu1133     Cu  0.26399501  0.98412599  0.75037432     1.04600
Cu1134     Cu  0.23186747  0.51508189  0.74986874     1.04300
C1135       C  0.18858306  0.94004460  0.75078424     0.94600
C1136       C  0.30700675  0.55984401  0.74934815     0.93800
C1137       C  0.24836385  0.50145416  0.78978502     0.85900
C1138       C  0.24747818  0.49882332  0.71022480     0.92200
O1139       O  0.26218877  0.73170455  0.77929231    -0.71500
O1140       O  0.26412607  0.73415421  0.71896909    -0.72500
O1141       O  0.30801622  0.77850318  0.74981870    -0.61100
O1142       O  0.21829985  0.68747133  0.74850779    -0.69600
O1143       O  0.18880537  0.71568662  0.74861552    -0.69100
O1144       O  0.27830350  0.80646441  0.75003548    -0.60400
O1145       O  0.23457691  0.76229354  0.71918957    -0.72900
O1146       O  0.23249085  0.75969471  0.77944807    -0.71700
Cu1147     Cu  0.26420508  0.73198431  0.74913232     1.04600
Cu1148     Cu  0.23252367  0.76198577  0.74932432     1.04300
C1149       C  0.24697834  0.74528050  0.78898915     0.94600
C1150       C  0.24966621  0.74863434  0.70945863     0.93800
C1151       C  0.30745981  0.80699285  0.75014848     0.85900
C1152       C  0.18922971  0.68715285  0.74841301     0.92200
C1153       C  0.40376743  0.62598594  0.74589321     0.25000
C1154       C  0.40414211  0.65752998  0.74909704    -0.23100
C1155       C  0.37210422  0.65659979  0.75211937     0.19900
C1156       C  0.34068988  0.62504410  0.75210747     0.24900
C1157       C  0.34035653  0.59348287  0.74905892    -0.23100
C1158       C  0.37237020  0.59445023  0.74587353     0.19800
F1159       F  0.37353000  0.56488514  0.74257119    -0.13000
F1160       F  0.43380341  0.62540771  0.74260481    -0.15400
F1161       F  0.31064037  0.62558788  0.75541674    -0.15400
F1162       F  0.37096704  0.68617692  0.75541806    -0.13000
C1163       C  0.09121681  0.87516980  0.75093366     0.25000
C1164       C  0.09063098  0.84317130  0.75156450    -0.23100
C1165       C  0.12264573  0.84346371  0.75234269     0.19900
C1166       C  0.15428184  0.87474874  0.75215555     0.24900
C1167       C  0.15489525  0.90673256  0.75122040    -0.23100
C1168       C  0.12285683  0.90646069  0.75074351     0.19800
F1169       F  0.12183606  0.93648484  0.75000247    -0.13000
F1170       F  0.06117812  0.87645928  0.75038245    -0.15400
F1171       F  0.18430703  0.87346569  0.75287175    -0.15400
F1172       F  0.12363603  0.81344257  0.75329240    -0.13000
C1173       C  0.40403643  0.87345336  0.75391857     0.25000
C1174       C  0.40422994  0.90502111  0.75120879    -0.23100
C1175       C  0.37213702  0.90399614  0.74839151     0.19900
C1176       C  0.34083284  0.87231865  0.74809444     0.24900
C1177       C  0.34069914  0.84073591  0.75063625    -0.23100
C1178       C  0.37277541  0.84181516  0.75361256     0.19800
F1179       F  0.37414341  0.81224591  0.75640155    -0.13000
F1180       F  0.43412475  0.87294892  0.75704839    -0.15400
F1181       F  0.31070588  0.87276916  0.74500760    -0.15400
F1182       F  0.37084349  0.93360545  0.74559957    -0.13000
C1183       C  0.12337752  0.59102175  0.75340245     0.25000
C1184       C  0.09175006  0.59010883  0.74899413    -0.23100
C1185       C  0.09267030  0.62138264  0.74403145     0.19900
C1186       C  0.12426442  0.65269944  0.74364214     0.24900
C1187       C  0.15584105  0.65366810  0.74825104    -0.23100
C1188       C  0.15498382  0.62236054  0.75302485     0.19800
F1189       F  0.18464151  0.62196100  0.75778259    -0.13000
F1190       F  0.12385790  0.56167310  0.75850644    -0.15400
F1191       F  0.12380239  0.68203317  0.73846993    -0.15400
F1192       F  0.06303825  0.62181923  0.73925848    -0.13000
C1193       C  0.26338094  0.73176420  0.65498642     0.25000
C1194       C  0.25216135  0.75189968  0.64459236    -0.23100
C1195       C  0.23994879  0.77080194  0.65542133     0.19900
C1196       C  0.23878700  0.76951913  0.67646467     0.24900
C1197       C  0.25044424  0.74967020  0.68709033    -0.23100
C1198       C  0.26283614  0.73083380  0.67603374     0.19800
F1199       F  0.27419201  0.71119430  0.68547672    -0.13000
F1200       F  0.27550809  0.71345803  0.64472244    -0.15400
F1201       F  0.22617116  0.78774494  0.68633418    -0.15400
F1202       F  0.22801943  0.78961208  0.64556922    -0.13000
C1203       C  0.23570707  0.51641884  0.65549098     0.25000
C1204       C  0.24959483  0.49841724  0.64525358    -0.23100
C1205       C  0.26288266  0.98101955  0.65617557     0.19900
C1206       C  0.26297490  0.98135862  0.67725160     0.24900
C1207       C  0.24798341  0.49853967  0.68780691    -0.23100
C1208       C  0.23457980  0.51626989  0.67656026     0.19800
F1209       F  0.22033572  0.53354035  0.68583856    -0.13000
F1210       F  0.22233829  0.53339261  0.64503816    -0.15400
F1211       F  0.27672370  0.96412349  0.68704540    -0.15400
F1212       F  0.27658706  0.96379302  0.64626539    -0.13000
C1213       C  0.38164916  0.73179535  0.59662110     0.25000
C1214       C  0.40870686  0.75336152  0.58341626    -0.23100
C1215       C  0.40381993  0.77504221  0.56999364     0.19900
C1216       C  0.37219829  0.77503204  0.56973639     0.24900
C1217       C  0.34509812  0.75331526  0.58287915    -0.23100
C1218       C  0.35003397  0.73174613  0.59633486     0.19800
F1219       F  0.32459068  0.71142581  0.60962635    -0.13000
F1220       F  0.38624013  0.71159042  0.61022055    -0.15400
F1221       F  0.36760458  0.79532538  0.55620017    -0.15400
F1222       F  0.42924163  0.79534528  0.55668031    -0.13000
C1223       C  0.15781850  0.78349962  0.58486062     0.25000
C1224       C  0.15840055  0.75212709  0.58348206    -0.23100
C1225       C  0.12643702  0.72078801  0.58222307     0.19900
C1226       C  0.09484860  0.72083989  0.58215339     0.24900
C1227       C  0.09428203  0.75223235  0.58341553    -0.23100
C1228       C  0.12624915  0.78355179  0.58480186     0.19800
F1229       F  0.12724964  0.81452329  0.58619080    -0.13000
F1230       F  0.18780297  0.81442457  0.58638850    -0.15400
F1231       F  0.06484226  0.68991964  0.58072873    -0.15400
F1232       F  0.12548007  0.68982842  0.58094201    -0.13000
C1233       C  0.01178882  0.73343204  0.65616050     0.25000
C1234       C  0.50195541  0.75438199  0.64542736    -0.23100
C1235       C  0.49134331  0.77488772  0.65602707     0.19900
C1236       C  0.49009992  0.77411573  0.67711503     0.24900
C1237       C  0.49998856  0.75311354  0.68802579    -0.23100
C1238       C  0.01110559  0.73296067  0.67721775     0.19800
F1239       F  0.02102857  0.71238784  0.68692678    -0.13000
F1240       F  0.02270633  0.71381211  0.64622190    -0.15400
F1241       F  0.47922675  0.79401157  0.68675853    -0.15400
F1242       F  0.48102074  0.79480076  0.64592168    -0.13000
C1243       C  0.40539642  0.52621830  0.57524994     0.25000
C1244       C  0.40813578  0.49950213  0.58490169    -0.23100
C1245       C  0.37764324  0.97284590  0.59419304     0.19900
C1246       C  0.34591780  0.97255294  0.59406421     0.24900
C1247       C  0.34407225  0.49887837  0.58448257    -0.23100
C1248       C  0.37363551  0.52589461  0.57502849     0.19800
F1249       F  0.37156586  0.55143620  0.56499181    -0.13000
F1250       F  0.43314954  0.55206742  0.56542952    -0.15400
F1251       F  0.31833889  0.94692076  0.60412233    -0.15400
F1252       F  0.37983141  0.94746508  0.60434819    -0.13000
C1253       C  0.12450750  0.52727229  0.58056994     0.25000
C1254       C  0.09267993  0.49644235  0.58371545    -0.23100
C1255       C  0.09264917  0.96654040  0.58844672     0.19900
C1256       C  0.12407395  0.96614655  0.58811807     0.24900
C1257       C  0.15642973  0.49580882  0.58328226    -0.23100
C1258       C  0.15590734  0.52697601  0.58036541     0.19800
F1259       F  0.18578521  0.55744735  0.57711784    -0.13000
F1260       F  0.12547188  0.55792866  0.57740531    -0.15400
F1261       F  0.12358078  0.93619744  0.59290815    -0.15400
F1262       F  0.06303020  0.93692509  0.59352734    -0.13000
C1263       C  0.01776610  0.48417650  0.65660711     0.25000
C1264       C  0.49840955  0.49585734  0.64584059    -0.23100
C1265       C  0.47712303  0.00858407  0.65629277     0.19900
C1266       C  0.47631862  0.00823104  0.67736591     0.24900
C1267       C  0.49748827  0.49590697  0.68828269    -0.23100
C1268       C  0.01759466  0.48442032  0.67765100     0.19800
F1269       F  0.03761137  0.47390379  0.68751172    -0.13000
F1270       F  0.03759566  0.47339940  0.64670293    -0.15400
F1271       F  0.45520572  0.01780542  0.68688850    -0.15400
F1272       F  0.45709699  0.01858290  0.64596594    -0.13000
C1273       C  0.26648580  0.73352862  0.82218955     0.25000
C1274       C  0.24642133  0.74464471  0.81135969    -0.23100
C1275       C  0.22618600  0.75562629  0.82219053     0.19900
C1276       C  0.22673481  0.75636102  0.84323471     0.24900
C1277       C  0.24748247  0.74606564  0.85405112    -0.23100
C1278       C  0.26701471  0.73424067  0.84323495     0.19800
F1279       F  0.28713344  0.72367194  0.85293290    -0.13000
F1280       F  0.28613282  0.72231466  0.81250342    -0.15400
F1281       F  0.20654599  0.76690928  0.85293832    -0.15400
F1282       F  0.20550089  0.76550683  0.81250322    -0.13000
C1283       C  0.27988678  0.01045835  0.82278710     0.25000
C1284       C  0.24864460  0.50202649  0.81194864    -0.23100
C1285       C  0.21759462  0.49154982  0.82272669     0.19900
C1286       C  0.21769357  0.49137417  0.84380406     0.24900
C1287       C  0.24884388  0.50164548  0.85436252    -0.23100
C1288       C  0.28001239  0.01045621  0.84386282     0.19800
F1289       F  0.31064673  0.02179776  0.85376273    -0.13000
F1290       F  0.31039699  0.02173108  0.81267949    -0.15400
F1291       F  0.18716936  0.48000525  0.85390934    -0.15400
F1292       F  0.18697270  0.48026447  0.81282310    -0.13000
C1293       C  0.40607869  0.62479259  0.91787497     0.25000
C1294       C  0.40661977  0.65673518  0.91680965    -0.23100
C1295       C  0.37462146  0.65636309  0.91530256     0.19900
C1296       C  0.34305339  0.62502795  0.91500745     0.24900
C1297       C  0.34248200  0.59309065  0.91624950    -0.23100
C1298       C  0.37450122  0.59344810  0.91758467     0.19800
F1299       F  0.37553917  0.56346510  0.91871811    -0.13000
F1300       F  0.43610568  0.62360697  0.91931573    -0.15400
F1301       F  0.31305224  0.62621996  0.91340516    -0.15400
F1302       F  0.37359682  0.68633632  0.91400438    -0.13000
C1303       C  0.09309338  0.87433957  0.91805468     0.25000
C1304       C  0.09285365  0.84249791  0.91785858    -0.23100
C1305       C  0.12505276  0.84311353  0.91752987     0.19900
C1306       C  0.15650131  0.87459251  0.91723318     0.24900
C1307       C  0.15672995  0.90642692  0.91724858    -0.23100
C1308       C  0.12453026  0.90580719  0.91774562     0.19800
F1309       F  0.12315763  0.93566229  0.91790856    -0.13000
F1310       F  0.06288593  0.87532230  0.91850201    -0.15400
F1311       F  0.18672575  0.87364016  0.91693572    -0.15400
F1312       F  0.12639997  0.81324710  0.91746185    -0.13000
C1313       C  0.98522128  0.76794800  0.84472246     0.25000
C1314       C  0.49922556  0.75019958  0.85532496    -0.23100
C1315       C  0.51233464  0.73210254  0.84422589     0.19900
C1316       C  0.51129088  0.73160447  0.82317087     0.24900
C1317       C  0.49717591  0.74925645  0.81256333    -0.23100
C1318       C  0.98418880  0.76746108  0.82366395     0.19800
F1319       F  0.97063805  0.78519968  0.81423129    -0.13000
F1320       F  0.97258848  0.78612006  0.85464243    -0.15400
F1321       F  0.52412957  0.71360468  0.81326133    -0.15400
F1322       F  0.52613334  0.71458046  0.85365350    -0.13000
C1323       C  0.37396620  0.90458626  0.91568133     0.25000
C1324       C  0.40601772  0.90500192  0.91698908    -0.23100
C1325       C  0.40546382  0.87304736  0.91806747     0.19900
C1326       C  0.37388458  0.84168774  0.91785905     0.24900
C1327       C  0.34183495  0.84126380  0.91651625    -0.23100
C1328       C  0.34237155  0.87320954  0.91547009     0.19800
F1329       F  0.31231871  0.87436239  0.91414860    -0.13000
F1330       F  0.37291906  0.93455703  0.91448515    -0.15400
F1331       F  0.37495639  0.81172958  0.91907992    -0.15400
F1332       F  0.43549659  0.87184963  0.91936116    -0.13000
C1333       C  0.09256016  0.62260566  0.91579461     0.25000
C1334       C  0.09241716  0.59081379  0.91540770    -0.23100
C1335       C  0.12462713  0.59151441  0.91448733     0.19900
C1336       C  0.15603299  0.62305887  0.91449081     0.24900
C1337       C  0.15614769  0.65482638  0.91542020    -0.23100
C1338       C  0.12392029  0.65410241  0.91581421     0.19800
F1339       F  0.12244452  0.68389261  0.91629538    -0.13000
F1340       F  0.06232012  0.62352175  0.91621457    -0.15400
F1341       F  0.18630604  0.62224933  0.91351324    -0.15400
F1342       F  0.12600904  0.56169417  0.91354071    -0.13000
C1343       C  0.50036078  0.02561329  0.82333057     0.25000
C1344       C  0.49976413  0.49852094  0.81230917    -0.23100
C1345       C  0.99912216  0.47079122  0.82291417     0.19900
C1346       C  0.99907058  0.47053467  0.84396414     0.24900
C1347       C  0.49963919  0.49799574  0.85481338    -0.23100
C1348       C  0.50061789  0.02540183  0.84437286     0.19800
F1349       F  0.50238651  0.05286449  0.85441779    -0.13000
F1350       F  0.50189010  0.05325389  0.81364232    -0.15400
F1351       F  0.99741777  0.44288177  0.85370636    -0.15400
F1352       F  0.99748297  0.44334524  0.81291784    -0.13000
C1353       C  0.22065634  0.74791907  0.98887239     0.25000
C1354       C  0.24854404  0.74880886  0.97811424    -0.23100
C1355       C  0.27659023  0.75010328  0.98881054     0.19900
C1356       C  0.27678341  0.75051386  0.00985555     0.24900
C1357       C  0.24867698  0.74912753  0.02065041    -0.23100
C1358       C  0.22060808  0.74785185  0.00993842     0.19800
F1359       F  0.19332214  0.74713541  0.01982043    -0.13000
F1360       F  0.19300787  0.74633979  0.97901882    -0.15400
F1361       F  0.30424853  0.75158555  0.01964244    -0.15400
F1362       F  0.30424530  0.75165730  0.97890310    -0.13000
C1363       C  0.21774585  0.87360288  0.08014464     0.25000
C1364       C  0.24874878  0.90517912  0.08352238    -0.23100
C1365       C  0.27984236  0.90440506  0.08687409     0.19900
C1366       C  0.27991680  0.87297475  0.08680941     0.24900
C1367       C  0.24893412  0.84142750  0.08332687    -0.23100
C1368       C  0.21782388  0.84219416  0.08007933     0.19800
F1369       F  0.18728332  0.81257140  0.07654389    -0.13000
F1370       F  0.18717037  0.87290509  0.07657497    -0.15400
F1371       F  0.31045033  0.87360788  0.09043046    -0.15400
F1372       F  0.31036679  0.93403486  0.09043039    -0.13000
C1373       C  0.27956055  0.65421221  0.08016512     0.25000
C1374       C  0.24827405  0.65506805  0.08236874    -0.23100
C1375       C  0.21684260  0.62338694  0.08465159     0.19900
C1376       C  0.21672255  0.59184298  0.08475478     0.24900
C1377       C  0.24803197  0.59100066  0.08259335    -0.23100
C1378       C  0.27944793  0.62268470  0.08028913     0.19800
F1379       F  0.31034499  0.62342824  0.07802662    -0.13000
F1380       F  0.31054526  0.68389509  0.07774047    -0.15400
F1381       F  0.18573439  0.56215293  0.08716000    -0.15400
F1382       F  0.18597990  0.62268513  0.08701099    -0.13000
C1383       C  0.23633844  0.51803927  0.98960939     0.25000
C1384       C  0.24841791  0.49888202  0.97856902    -0.23100
C1385       C  0.25990829  0.97776450  0.98957399     0.19900
C1386       C  0.25954259  0.97742208  0.01066076     0.24900
C1387       C  0.24777737  0.99684196  0.02134281    -0.23100
C1388       C  0.23560717  0.51706635  0.01067783     0.19800
F1389       F  0.22423127  0.53600952  0.02094063    -0.13000
F1390       F  0.22557031  0.53812472  0.98012741    -0.15400
F1391       F  0.27002783  0.95756524  0.02068960    -0.15400
F1392       F  0.27060644  0.95784083  0.97979180    -0.13000
C1393       C  0.97026081  0.72447441  0.01093698     0.25000
C1394       C  0.49971777  0.74933057  0.02161304    -0.23100
C1395       C  0.52914245  0.77385481  0.01070016     0.19900
C1396       C  0.52907439  0.77341772  0.98964932     0.24900
C1397       C  0.49968693  0.74869520  0.97919815    -0.23100
C1398       C  0.97029753  0.72427593  0.98986889     0.19800
F1399       F  0.94179994  0.69999851  0.97984576    -0.13000
F1400       F  0.94166940  0.69990184  0.02082163    -0.15400
F1401       F  0.55752839  0.79746190  0.97941763    -0.15400
F1402       F  0.55777039  0.79873581  0.02033603    -0.13000
C1403       C  0.03116092  0.90552343  0.07978605     0.25000
C1404       C  0.50002992  0.90631129  0.08302715    -0.23100
C1405       C  0.46892923  0.87465629  0.08617186     0.19900
C1406       C  0.46904837  0.84322845  0.08636259     0.24900
C1407       C  0.50027729  0.84249405  0.08341907    -0.23100
C1408       C  0.03128135  0.87409921  0.07998054     0.19800
F1409       F  0.06189972  0.87479504  0.07649458    -0.13000
F1410       F  0.06168720  0.93514604  0.07614740    -0.15400
F1411       F  0.43840508  0.81354955  0.08965894    -0.15400
F1412       F  0.43819722  0.87389534  0.08932475    -0.13000
C1413       C  0.03213819  0.65597907  0.08546015     0.25000
C1414       C  0.50085409  0.65670737  0.08296858    -0.23100
C1415       C  0.46959845  0.62505374  0.08028404     0.19900
C1416       C  0.46956764  0.59357424  0.08034989     0.24900
C1417       C  0.50080527  0.59282338  0.08307560    -0.23100
C1418       C  0.03210889  0.62451031  0.08553163     0.19800
F1419       F  0.06291818  0.62528244  0.08826215    -0.13000
F1420       F  0.06298324  0.68570607  0.08809028    -0.15400
F1421       F  0.43877700  0.56386665  0.07752360    -0.15400
F1422       F  0.43885883  0.62434152  0.07734650    -0.13000
C1423       C  0.02693220  0.49815864  0.01063074     0.25000
C1424       C  0.50023093  0.00023636  0.02146046    -0.23100
C1425       C  0.47400427  0.00248520  0.01076813     0.19900
C1426       C  0.47405739  0.00255957  0.98969765     0.24900
C1427       C  0.50030825  0.50003068  0.97888363    -0.23100
C1428       C  0.02665729  0.49786203  0.98956368     0.19800
F1429       F  0.05259095  0.49602371  0.97964727    -0.13000
F1430       F  0.05255859  0.49568534  0.02041638    -0.15400
F1431       F  0.44821830  0.00464257  0.97990436    -0.15400
F1432       F  0.44866829  0.00535665  0.02070504    -0.13000
C1433       C  0.23068543  0.72011222  0.48911403     0.25000
C1434       C  0.25132077  0.75066456  0.47801819    -0.23100
C1435       C  0.27210849  0.78182449  0.48856184     0.19900
C1436       C  0.27210160  0.78243083  0.50961766     0.24900
C1437       C  0.25139647  0.75187479  0.52071162    -0.23100
C1438       C  0.23067830  0.72071525  0.51015792     0.19800
F1439       F  0.20987615  0.69064410  0.52012330    -0.13000
F1440       F  0.20998258  0.68949303  0.47967939    -0.15400
F1441       F  0.29285960  0.81302918  0.51906099    -0.15400
F1442       F  0.29298775  0.81185451  0.47857470    -0.13000
C1443       C  0.24090193  0.51875416  0.51134525     0.25000
C1444       C  0.24855249  0.49558347  0.52149373    -0.23100
C1445       C  0.25531944  0.97356119  0.51033268     0.19900
C1446       C  0.25531868  0.97433414  0.48922566     0.24900
C1447       C  0.24846791  0.49753636  0.47903197    -0.23100
C1448       C  0.24088697  0.51974192  0.49030152     0.19800
F1449       F  0.23259448  0.54182005  0.48091367    -0.13000
F1450       F  0.23255972  0.53987200  0.52184028    -0.15400
F1451       F  0.26380957  0.95325067  0.47881254    -0.15400
F1452       F  0.26380006  0.95175184  0.51988149    -0.13000
C1453       C  0.49020198  0.71941406  0.51072805     0.25000
C1454       C  0.49914492  0.75026399  0.52127862    -0.23100
C1455       C  0.00729838  0.78037859  0.51017010     0.19900
C1456       C  0.00700339  0.77981202  0.48911300     0.24900
C1457       C  0.49862546  0.74912664  0.47853431    -0.23100
C1458       C  0.48995739  0.71885405  0.48963608     0.19800
F1459       F  0.48181293  0.68867607  0.48015678    -0.13000
F1460       F  0.48229595  0.68974930  0.52075764    -0.15400
F1461       F  0.01447269  0.80941084  0.47914279    -0.15400
F1462       F  0.01507970  0.81048562  0.51962303    -0.13000
C1463       C  0.37338796  0.77767540  0.42436766     0.25000
C1464       C  0.34358170  0.75003165  0.41555650    -0.23100
C1465       C  0.34605217  0.72254598  0.40673292     0.19900
C1466       C  0.37763933  0.72256902  0.40685337     0.24900
C1467       C  0.40738106  0.75008463  0.41579176    -0.23100
C1468       C  0.40498894  0.77770493  0.42448061     0.19800
F1469       F  0.43297458  0.80431300  0.43362536    -0.13000
F1470       F  0.37176615  0.80425384  0.43341820    -0.15400
F1471       F  0.37929230  0.69605068  0.39774104    -0.15400
F1472       F  0.31811897  0.69601854  0.39750106    -0.13000
C1473       C  0.12412665  0.77900810  0.41137993     0.25000
C1474       C  0.09270400  0.74858880  0.41606562    -0.23100
C1475       C  0.09369197  0.71811442  0.42057451     0.19900
C1476       C  0.12531694  0.71814615  0.42054893     0.24900
C1477       C  0.15678104  0.74866131  0.41601470    -0.23100
C1478       C  0.15572885  0.77906196  0.41138750     0.19800
F1479       F  0.18522825  0.80895836  0.40653835    -0.13000
F1480       F  0.12442208  0.80880076  0.40642368    -0.15400
F1481       F  0.12500270  0.68827273  0.42531114    -0.15400
F1482       F  0.06413859  0.68823278  0.42537372    -0.13000
C1483       C  0.02444801  0.53134384  0.51171789     0.25000
C1484       C  0.00112212  0.50088767  0.52218657    -0.23100
C1485       C  0.47891125  0.96979348  0.51105800     0.19900
C1486       C  0.47912764  0.97044229  0.49000002     0.24900
C1487       C  0.00132082  0.50269289  0.47954495    -0.23100
C1488       C  0.02450026  0.53224647  0.49066328     0.19800
F1489       F  0.04787031  0.56196019  0.48121639    -0.13000
F1490       F  0.04781303  0.56023990  0.52177910    -0.15400
F1491       F  0.45726907  0.94080916  0.48000635    -0.15400
F1492       F  0.45685620  0.93956261  0.52051549    -0.13000
C1493       C  0.37718723  0.97281929  0.41169368     0.29800
C1494       C  0.40908368  0.50405307  0.41714283    -0.23100
C1495       C  0.40765164  0.53393979  0.42260219     0.19900
C1496       C  0.37592712  0.53369468  0.42264740     0.24900
C1497       C  0.34479611  0.50357207  0.41716474    -0.23100
C1498       C  0.34544729  0.97254303  0.41165574     0.19800
F1499       F  0.31635717  0.94314262  0.40576377    -0.13000
F1500       F  0.37746201  0.94368200  0.40581718    -0.15400
F1501       F  0.37580451  0.56295562  0.42842113    -0.15400
F1502       F  0.43685350  0.56339536  0.42831160    -0.13000
C1503       C  0.15456769  0.52726335  0.42949172     0.25000
C1504       C  0.15862374  0.50353204  0.41737575    -0.23100
C1505       C  0.13016228  0.97955672  0.40435898     0.19900
C1506       C  0.09868589  0.97984303  0.40443845     0.24900
C1507       C  0.09505088  0.50378673  0.41760203    -0.23100
C1508       C  0.12300208  0.52737633  0.42961099     0.19800
F1509       F  0.11937946  0.54979104  0.44194134    -0.13000
F1510       F  0.18080382  0.54961779  0.44169108    -0.15400
F1511       F  0.07274115  0.95823047  0.39183978    -0.15400
F1512       F  0.13402725  0.95770928  0.39167312    -0.13000
C1513       C  0.28031260  0.76962376  0.15543664     0.25000
C1514       C  0.24909164  0.74931658  0.14475224    -0.23100
C1515       C  0.21788724  0.73007735  0.15570546     0.19900
C1516       C  0.21796302  0.73075796  0.17674366     0.24900
C1517       C  0.24926281  0.75064636  0.18743772    -0.23100
C1518       C  0.28039164  0.77028292  0.17648364     0.19800
F1519       F  0.31108549  0.79061032  0.18605043    -0.13000
F1520       F  0.31094626  0.78936195  0.14559974    -0.15400
F1521       F  0.18720351  0.71151869  0.18655794    -0.15400
F1522       F  0.18707435  0.71020052  0.14615018    -0.13000
C1523       C  0.27573610  0.77763802  0.32217178     0.25000
C1524       C  0.24924338  0.74975702  0.31143168    -0.23100
C1525       C  0.22293081  0.72144510  0.32210009     0.19900
C1526       C  0.22331108  0.72088858  0.34315404     0.24900
C1527       C  0.24974032  0.74889797  0.35392847    -0.23100
C1528       C  0.27593558  0.77728241  0.34320374     0.19800
F1529       F  0.30218338  0.80454569  0.35303653    -0.13000
F1530       F  0.30109225  0.80568599  0.31232309    -0.15400
F1531       F  0.19742000  0.69318962  0.35296082    -0.15400
F1532       F  0.19718068  0.69392735  0.31215352    -0.13000
C1533       C  0.28169997  0.87544131  0.25059644     0.25000
C1534       C  0.24989844  0.84377346  0.24988745    -0.23100
C1535       C  0.21855678  0.84478404  0.24937364     0.19900
C1536       C  0.21898977  0.87646361  0.24956275     0.24900
C1537       C  0.25079281  0.90813413  0.25026440    -0.23100
C1538       C  0.28213370  0.90711690  0.25077813     0.19800
F1539       F  0.31349065  0.93677413  0.25152374    -0.13000
F1540       F  0.31270186  0.87605116  0.25119170    -0.15400
F1541       F  0.18799085  0.87585760  0.24898402    -0.15400
F1542       F  0.18720677  0.81511783  0.24862509    -0.13000
C1543       C  0.21967119  0.59469933  0.24848180     0.25000
C1544       C  0.25146462  0.59456867  0.24964628    -0.23100
C1545       C  0.28271490  0.62660788  0.25082706     0.19900
C1546       C  0.28220431  0.65781975  0.25083194     0.24900
C1547       C  0.25041219  0.65795364  0.24960630    -0.23100
C1548       C  0.21916012  0.62590419  0.24847504     0.19800
F1549       F  0.18780953  0.62447231  0.24729308    -0.13000
F1550       F  0.18877160  0.56461154  0.24724925    -0.15400
F1551       F  0.31309059  0.68790042  0.25216425    -0.15400
F1552       F  0.31404220  0.62800900  0.25212040    -0.13000
C1553       C  0.28037617  0.02281524  0.17697729     0.25000
C1554       C  0.25021194  0.00041392  0.18806002    -0.23100
C1555       C  0.21908789  0.47831154  0.17749869     0.19900
C1556       C  0.21857572  0.47783265  0.15640840     0.24900
C1557       C  0.24949231  0.99948124  0.14532866    -0.23100
C1558       C  0.28002398  0.02234908  0.15590476     0.19800
F1559       F  0.30959718  0.04483989  0.14591647    -0.13000
F1560       F  0.31025627  0.04576650  0.18646263    -0.15400
F1561       F  0.18801743  0.45644436  0.14699798    -0.15400
F1562       F  0.18898044  0.45742542  0.18753514    -0.13000
C1563       C  0.28551582  0.52288392  0.32351352     0.25000
C1564       C  0.25237810  0.00332375  0.31259780    -0.23100
C1565       C  0.22073881  0.98821622  0.32352858     0.19900
C1566       C  0.22085606  0.98891057  0.34457754     0.24900
C1567       C  0.25371865  0.50774111  0.35526974    -0.23100
C1568       C  0.28533465  0.52418565  0.34462034     0.19800
F1569       F  0.31609602  0.54038698  0.35469978    -0.13000
F1570       F  0.31672505  0.53835016  0.31380917    -0.15400
F1571       F  0.19002244  0.97424545  0.35467926    -0.15400
F1572       F  0.18948711  0.97263690  0.31396002    -0.13000
C1573       C  0.02612330  0.74267127  0.17712922     0.25000
C1574       C  0.50362707  0.75059983  0.18797936    -0.23100
C1575       C  0.48017868  0.75749679  0.17746568     0.19900
C1576       C  0.47943475  0.75685273  0.15642832     0.24900
C1577       C  0.50212793  0.74930096  0.14555230    -0.23100
C1578       C  0.02537373  0.74202495  0.15603684     0.19800
F1579       F  0.04653834  0.73322243  0.14586810    -0.13000
F1580       F  0.04794017  0.73441084  0.18695020    -0.15400
F1581       F  0.45732126  0.76475575  0.14665739    -0.15400
F1582       F  0.45868700  0.76592060  0.18757700    -0.13000
C1583       C  0.97259849  0.74677245  0.32265944     0.25000
C1584       C  0.50266436  0.75227443  0.31206354    -0.23100
C1585       C  0.53196329  0.75705476  0.32310341     0.19900
C1586       C  0.53114329  0.75632002  0.34417383     0.24900
C1587       C  0.50111088  0.75062033  0.35453294    -0.23100
C1588       C  0.97188223  0.74589336  0.34373281     0.19800
F1589       F  0.94281880  0.74090804  0.35363502    -0.13000
F1590       F  0.94405035  0.74283030  0.31269543    -0.15400
F1591       F  0.55952754  0.76069738  0.35451698    -0.15400
F1592       F  0.56116925  0.76165613  0.31356696    -0.13000
C1593       C  0.47439060  0.87824542  0.25438425     0.25000
C1594       C  0.50509351  0.90982508  0.25043359    -0.23100
C1595       C  0.03599751  0.90906285  0.24620436     0.19900
C1596       C  0.03607643  0.87756570  0.24586848     0.24900
C1597       C  0.50526652  0.84598294  0.24975758    -0.23100
C1598       C  0.47446931  0.84684771  0.25405390     0.19800
F1599       F  0.44422259  0.81730069  0.25830101    -0.13000
F1600       F  0.44407432  0.87753535  0.25890640    -0.15400
F1601       F  0.06637122  0.87813814  0.24145885    -0.15400
F1602       F  0.06621773  0.93872605  0.24207678    -0.13000
C1603       C  0.47093716  0.62681422  0.24847449     0.25000
C1604       C  0.50243195  0.65851638  0.25038650    -0.23100
C1605       C  0.03377611  0.65772037  0.25229617     0.19900
C1606       C  0.03364895  0.62623953  0.25239287     0.24900
C1607       C  0.50218189  0.59452509  0.25055497    -0.23100
C1608       C  0.47081698  0.59526653  0.24855220     0.19800
F1609       F  0.43982850  0.56549585  0.24645500    -0.13000
F1610       F  0.44004781  0.62610260  0.24633795    -0.15400
F1611       F  0.06461643  0.62707872  0.25443272    -0.15400
F1612       F  0.06488031  0.68742734  0.25418091    -0.13000
C1613       C  0.03288474  0.51278603  0.15649341     0.25000
C1614       C  0.50089178  0.00013165  0.14566619    -0.23100
C1615       C  0.47001677  0.98961776  0.15677114     0.19900
C1616       C  0.47055905  0.99020776  0.17784058     0.24900
C1617       C  0.50199593  0.00130503  0.18841204    -0.23100
C1618       C  0.03320385  0.51309523  0.17755816     0.19800
F1619       F  0.06415534  0.52429927  0.18706503    -0.13000
F1620       F  0.06355753  0.52371926  0.14663536    -0.15400
F1621       F  0.44015016  0.98021757  0.18780804    -0.15400
F1622       F  0.43913125  0.97908941  0.14732480    -0.13000
C1623       C  0.47558907  0.97653967  0.34452262     0.25000
C1624       C  0.00298484  0.50441958  0.35543117    -0.23100
C1625       C  0.02986857  0.53195611  0.34455338     0.19900
C1626       C  0.03029476  0.53123162  0.32348192     0.24900
C1627       C  0.00355213  0.50323816  0.31287596    -0.23100
C1628       C  0.47603611  0.97610816  0.32348226     0.19800
F1629       F  0.44983106  0.94873087  0.31369686    -0.13000
F1630       F  0.44848270  0.95000492  0.35436995    -0.15400
F1631       F  0.05653241  0.55831082  0.31346288    -0.15400
F1632       F  0.05616573  0.55932728  0.35428574    -0.13000
O1633       O  0.53156628  0.01612355  0.22022918    -0.71500
O1634       O  0.53256210  0.01742268  0.28075538    -0.72500
O1635       O  0.53265444  0.47174889  0.25096300    -0.61100
O1636       O  0.53122908  0.06127186  0.25025262    -0.69600
O1637       O  0.97356058  0.03222669  0.25078693    -0.69100
O1638       O  0.97499017  0.44276744  0.25096694    -0.60400
O1639       O  0.97456906  0.48759607  0.28115885    -0.72900
O1640       O  0.97372796  0.48734922  0.22081292    -0.71700
Cu1641     Cu  0.53416147  0.01771865  0.25046069     1.04600
Cu1642     Cu  0.97220812  0.48647777  0.25100961     1.04300
C1643       C  0.00243281  0.50167430  0.21101061     0.94600
C1644       C  0.50368147  0.00269458  0.29040447     0.93800
C1645       C  0.50397531  0.44291733  0.25097266     0.85900
C1646       C  0.50223895  0.06107994  0.25044841     0.92200
O1647       O  0.97517428  0.28346015  0.25055709    -0.71500
O1648       O  0.97369804  0.19246513  0.24946519    -0.72500
O1649       O  0.97451817  0.23709283  0.28011353    -0.61100
O1650       O  0.97390730  0.23862255  0.21987002    -0.69600
O1651       O  0.53173381  0.26494737  0.21952511    -0.69100
O1652       O  0.53245486  0.26704871  0.27998337    -0.60400
O1653       O  0.53137052  0.22061752  0.25016335    -0.72900
O1654       O  0.53282241  0.31161579  0.24935573    -0.71700
Cu1655     Cu  0.97232987  0.23696611  0.25000694     1.04600
Cu1656     Cu  0.53413775  0.26705428  0.24973885     1.04300
C1657       C  0.00413412  0.31202035  0.25004830     0.94600
C1658       C  0.00240322  0.19207152  0.24979495     0.93800
C1659       C  0.00349518  0.25204940  0.28950175     0.85900
C1660       C  0.00266385  0.25156048  0.21018421     0.92200
O1661       O  0.78084815  0.01638846  0.28034134    -0.71500
O1662       O  0.77961291  0.01532932  0.21986749    -0.72500
O1663       O  0.77990175  0.06088875  0.24996566    -0.61100
O1664       O  0.78106046  0.47096660  0.25049478    -0.69600
O1665       O  0.72340923  0.44263934  0.25110250    -0.69100
O1666       O  0.72223064  0.03205021  0.25031518    -0.60400
O1667       O  0.72229140  0.48632791  0.22040974    -0.72900
O1668       O  0.72459217  0.48909882  0.28082572    -0.71700
Cu1669     Cu  0.78214507  0.01675953  0.25007702     1.04600
Cu1670     Cu  0.72143017  0.48666118  0.25066305     1.04300
C1671       C  0.75362328  0.50401187  0.29023768     0.94600
C1672       C  0.75085006  0.50031262  0.21045492     0.93800
C1673       C  0.75093211  0.06080926  0.25008530     0.85900
C1674       C  0.75213985  0.44233910  0.25086002     0.92200
O1675       O  0.72069197  0.23673884  0.21933013    -0.71500
O1676       O  0.72052407  0.23585745  0.27955772    -0.72500
O1677       O  0.72113687  0.28185784  0.24972294    -0.61100
O1678       O  0.72049859  0.19102280  0.24924890    -0.69600
O1679       O  0.77817472  0.21965465  0.24942236    -0.69100
O1680       O  0.77880377  0.31001043  0.24933176    -0.60400
O1681       O  0.77835280  0.26497723  0.27944759    -0.72900
O1682       O  0.77838955  0.26475817  0.21919353    -0.71700
Cu1683     Cu  0.71867921  0.23538351  0.24944919     1.04600
Cu1684     Cu  0.78040125  0.26580303  0.24933379     1.04300
C1685       C  0.74950818  0.25079136  0.20964999     0.94600
C1686       C  0.74944856  0.25039139  0.28904086     0.93800
C1687       C  0.75013628  0.31042595  0.24965272     0.85900
C1688       C  0.74938940  0.19095381  0.24939997     0.92200
O1689       O  0.51520299  0.03101705  0.44776366    -0.71500
O1690       O  0.51698943  0.03269446  0.38729624    -0.72500
O1691       O  0.97062872  0.03183845  0.41735997    -0.61100
O1692       O  0.56134496  0.03192317  0.41791271    -0.69600
O1693       O  0.53309707  0.47524323  0.41700925    -0.69100
O1694       O  0.94270315  0.47543520  0.41740751    -0.60400
O1695       O  0.98784284  0.47572244  0.38721551    -0.72900
O1696       O  0.98777511  0.47489555  0.44739825    -0.71700
Cu1697     Cu  0.51703646  0.03390168  0.41759763     1.04600
Cu1698     Cu  0.98687224  0.47335603  0.41726388     1.04300
C1699       C  0.50121004  0.00201139  0.45709112     0.94600
C1700       C  0.50214008  0.00411685  0.37754580     0.93800
C1701       C  0.94186969  0.00307445  0.41736978     0.85900
C1702       C  0.56118309  0.00312531  0.41712214     0.92200
O1703       O  0.51428662  0.27860224  0.44641981    -0.71500
O1704       O  0.51385517  0.27928133  0.38608787    -0.72500
O1705       O  0.96872731  0.27863593  0.41665856    -0.61100
O1706       O  0.55941997  0.27914334  0.41580107    -0.69600
O1707       O  0.53086195  0.22174954  0.41584819    -0.69100
O1708       O  0.94017611  0.22112025  0.41619744    -0.60400
O1709       O  0.98568323  0.22185867  0.38588703    -0.72900
O1710       O  0.98551904  0.22119199  0.44642320    -0.71700
Cu1711     Cu  0.51504667  0.28089442  0.41626194     1.04600
Cu1712     Cu  0.98455893  0.21947064  0.41610115     1.04300
C1713       C  0.99983469  0.24990141  0.45605851     0.94600
C1714       C  0.99995102  0.25069684  0.37637031     0.93800
C1715       C  0.94008745  0.24980635  0.41647120     0.85900
C1716       C  0.55959112  0.25048829  0.41556736     0.92200
O1717       O  0.71968866  0.03084446  0.41725013    -0.71500
O1718       O  0.81001654  0.03068162  0.41811754    -0.72500
O1719       O  0.76689988  0.03259480  0.38729606    -0.61100
O1720       O  0.76276509  0.02854633  0.44786115    -0.69600
O1721       O  0.73623905  0.47160491  0.44646470    -0.69100
O1722       O  0.73768819  0.47715592  0.38620690    -0.60400
O1723       O  0.78242634  0.47468083  0.41592550    -0.72900
O1724       O  0.69171452  0.47459384  0.41656222    -0.71700
Cu1725     Cu  0.76584160  0.03268361  0.41766762     1.04600
Cu1726     Cu  0.73601560  0.47251380  0.41622883     1.04300
C1727       C  0.69094881  0.00213934  0.41678614     0.94600
C1728       C  0.81020611  0.00207657  0.41717898     0.93800
C1729       C  0.75205461  0.00428408  0.37729812     0.85900
C1730       C  0.74871618  0.99912933  0.45675460     0.92200
O1731       O  0.73560485  0.22130632  0.38562118    -0.71500
O1732       O  0.73642747  0.22242147  0.44595857    -0.72500
O1733       O  0.69094958  0.22202329  0.41576455    -0.61100
O1734       O  0.78098612  0.22145522  0.41565001    -0.69600
O1735       O  0.81001425  0.27898211  0.41595877    -0.69100
O1736       O  0.71973515  0.27940646  0.41508836    -0.60400
O1737       O  0.76471053  0.27981803  0.44564735    -0.72900
O1738       O  0.76541167  0.27881320  0.38542644    -0.71700
Cu1739     Cu  0.73497489  0.21979825  0.41577488     1.04600
Cu1740     Cu  0.76595941  0.28125350  0.41551677     1.04300
C1741       C  0.75047700  0.24998343  0.37597211     0.94600
C1742       C  0.75079925  0.25128037  0.45542609     0.93800
C1743       C  0.69091262  0.25072504  0.41524144     0.85900
C1744       C  0.80977388  0.25012274  0.41589291     0.92200
O1745       O  0.97176855  0.48586557  0.05338358    -0.71500
O1746       O  0.97219054  0.48575097  0.11388887    -0.72500
O1747       O  0.97120958  0.03034410  0.08375006    -0.61100
O1748       O  0.97206628  0.44046172  0.08352804    -0.69600
O1749       O  0.52975935  0.46895847  0.08358507    -0.69100
O1750       O  0.52888762  0.05879283  0.08327113    -0.60400
O1751       O  0.52914406  0.01388031  0.11347243    -0.72900
O1752       O  0.52896655  0.01357780  0.05321617    -0.71700
Cu1753     Cu  0.96996901  0.48465663  0.08363243     1.04600
Cu1754     Cu  0.53095374  0.01465565  0.08332746     1.04300
C1755       C  0.00065130  0.49987071  0.04374436     0.94600
C1756       C  0.00113783  0.50043043  0.12339309     0.93800
C1757       C  0.00006755  0.05897893  0.08346924     0.85900
C1758       C  0.00090608  0.44029872  0.08351710     0.92200
O1759       O  0.97156257  0.19025045  0.08398900    -0.71500
O1760       O  0.97203029  0.28078136  0.08374278    -0.72500
O1761       O  0.97138590  0.23516670  0.05373877    -0.61100
O1762       O  0.97208752  0.23604885  0.11406956    -0.69600
O1763       O  0.52995057  0.26314111  0.11379413    -0.69100
O1764       O  0.52910023  0.26419584  0.05344294    -0.60400
O1765       O  0.52972898  0.30914114  0.08395422    -0.72900
O1766       O  0.52923529  0.21856565  0.08317097    -0.71700
Cu1767     Cu  0.96976697  0.23456360  0.08390727     1.04600
Cu1768     Cu  0.53151480  0.26476108  0.08358975     1.04300
C1769       C  0.00033095  0.18997343  0.08350152     0.94600
C1770       C  0.00093202  0.30939016  0.08379496     0.93800
C1771       C  0.00013068  0.24971503  0.04398031     0.85900
C1772       C  0.50111178  0.24955266  0.12344485     0.92200
O1773       O  0.71969639  0.48364009  0.11338674    -0.71500
O1774       O  0.71873971  0.48387091  0.05287534    -0.72500
O1775       O  0.71955883  0.43861640  0.08297941    -0.61100
O1776       O  0.71957543  0.02887560  0.08322477    -0.69600
O1777       O  0.77723535  0.05737290  0.08226265    -0.69100
O1778       O  0.77723696  0.46727960  0.08315796    -0.60400
O1779       O  0.77705553  0.01086349  0.05273967    -0.72900
O1780       O  0.77783342  0.01344584  0.11312644    -0.71700
Cu1781     Cu  0.71725754  0.48269943  0.08313876     1.04600
Cu1782     Cu  0.77941093  0.01324922  0.08291237     1.04300
C1783       C  0.74870965  0.49840662  0.12281894     0.94600
C1784       C  0.74757249  0.49743857  0.04322689     0.93800
C1785       C  0.74846323  0.43857456  0.08314014     0.85900
C1786       C  0.74840162  0.05753662  0.08260119     0.92200
O1787       O  0.77785735  0.30779185  0.08276434    -0.71500
O1788       O  0.77741122  0.21722368  0.08211058    -0.72500
O1789       O  0.77722120  0.26276968  0.05230785    -0.61100
O1790       O  0.77806737  0.26246433  0.11256421    -0.69600
O1791       O  0.72036902  0.23403825  0.11277495    -0.69100
O1792       O  0.71952289  0.23437677  0.05252169    -0.60400
O1793       O  0.71974115  0.18883919  0.08234877    -0.72900
O1794       O  0.72018752  0.27931929  0.08300902    -0.71700
Cu1795     Cu  0.77964241  0.26351530  0.08241776     1.04600
Cu1796     Cu  0.71796583  0.23313902  0.08267440     1.04300
C1797       C  0.74904109  0.30797013  0.08305806     0.94600
C1798       C  0.74851772  0.18858315  0.08211159     0.93800
C1799       C  0.74830118  0.24870175  0.04280178     0.85900
C1800       C  0.74928568  0.24848684  0.12228099     0.92200
O1801       O  0.98540424  0.01207131  0.88663041    -0.71500
O1802       O  0.98462284  0.01261157  0.94686717    -0.72500
O1803       O  0.53015977  0.05711634  0.91660469    -0.61100
O1804       O  0.93943475  0.46762286  0.91677655    -0.69600
O1805       O  0.96821348  0.43872498  0.91743598    -0.69100
O1806       O  0.55925509  0.02853780  0.91642856    -0.60400
O1807       O  0.51443727  0.48489683  0.94705673    -0.72900
O1808       O  0.51299960  0.48259953  0.88665813    -0.71700
Cu1809     Cu  0.98395816  0.01320111  0.91670965     1.04600
Cu1810     Cu  0.51464191  0.48266020  0.91684588     1.04300
C1811       C  0.49961943  0.99728862  0.87716067     0.94600
C1812       C  0.49969552  0.99900674  0.95661017     0.93800
C1813       C  0.55911676  0.05723359  0.91634417     0.85900
C1814       C  0.93935248  0.43883113  0.91712622     0.92200
O1815       O  0.96876837  0.19105225  0.91754555    -0.71500
O1816       O  0.55880136  0.28155011  0.91719513    -0.72500
O1817       O  0.51452733  0.23652629  0.94753616    -0.61100
O1818       O  0.51335390  0.23629098  0.88718997    -0.69600
O1819       O  0.98449237  0.26509564  0.88746409    -0.69100
O1820       O  0.98386625  0.26379807  0.94783023    -0.60400
O1821       O  0.52942792  0.30983772  0.91792071    -0.72900
O1822       O  0.93931458  0.21927020  0.91739707    -0.71700
Cu1823     Cu  0.51487538  0.23536604  0.91736077     1.04600
Cu1824     Cu  0.98327672  0.26551275  0.91766928     1.04300
C1825       C  0.93967385  0.19069434  0.91738681     0.94600
C1826       C  0.55849585  0.31014076  0.91759395     0.93800
C1827       C  0.99926746  0.25011334  0.95713318     0.85900
C1828       C  0.99875606  0.25064036  0.87768488     0.92200
O1829       O  0.80941930  0.03068781  0.91660127    -0.71500
O1830       O  0.71830653  0.44121851  0.91581240    -0.72500
O1831       O  0.76417172  0.48731522  0.88582412    -0.61100
O1832       O  0.76322807  0.48523689  0.94632994    -0.69600
O1833       O  0.73553680  0.01376282  0.94690130    -0.69100
O1834       O  0.73375539  0.01318877  0.88649666    -0.60400
O1835       O  0.68926190  0.46982164  0.91684642    -0.72900
O1836       O  0.78000024  0.05893358  0.91630046    -0.71700
Cu1837     Cu  0.76462601  0.48517960  0.91605910     1.04600
Cu1838     Cu  0.73383032  0.01463377  0.91672391     1.04300
C1839       C  0.80909069  0.05927637  0.91641869     0.94600
C1840       C  0.68936288  0.44112620  0.91647410     0.93800
C1841       C  0.74913078  0.99977372  0.87681900     0.85900
C1842       C  0.74962916  0.99891063  0.95640723     0.92200
O1843       O  0.73448700  0.26255079  0.88588652    -0.71500
O1844       O  0.73284210  0.26210448  0.94620822    -0.72500
O1845       O  0.77900868  0.30798603  0.91635370    -0.61100
O1846       O  0.68904029  0.21715520  0.91575615    -0.69600
O1847       O  0.71862809  0.18908992  0.91659567    -0.69100
O1848       O  0.80840311  0.27968501  0.91610807    -0.60400
O1849       O  0.76383070  0.23521750  0.94646118    -0.72900
O1850       O  0.76330917  0.23368557  0.88621027    -0.71700
Cu1851     Cu  0.73284836  0.26348307  0.91603952     1.04600
Cu1852     Cu  0.76456934  0.23346363  0.91635263     1.04300
C1853       C  0.74867772  0.24770911  0.87642908     0.94600
C1854       C  0.74823130  0.24870240  0.95582338     0.93800
C1855       C  0.80808105  0.30826839  0.91633355     0.85900
C1856       C  0.68951027  0.18863644  0.91610025     0.92200
O1857       O  0.94090221  0.47023489  0.58466919    -0.71500
O1858       O  0.53041848  0.46847921  0.58330071    -0.72500
O1859       O  0.98595914  0.46805589  0.61406140    -0.61100
O1860       O  0.98556843  0.47081427  0.55375464    -0.69600
O1861       O  0.51513985  0.02792761  0.55429254    -0.69100
O1862       O  0.51272308  0.02714611  0.61452954    -0.60400
O1863       O  0.55896849  0.02660795  0.58483386    -0.72900
O1864       O  0.96910645  0.02808223  0.58385861    -0.71700
Cu1865     Cu  0.98467515  0.46738231  0.58390625     1.04600
Cu1866     Cu  0.51505309  0.02945780  0.58439846     1.04300
C1867       C  0.94030583  0.99940959  0.58427569     0.94600
C1868       C  0.55865993  0.99769449  0.58427651     0.93800
C1869       C  0.49860120  0.99822020  0.62388644     0.85900
C1870       C  0.50022646  0.99942492  0.54451621     0.92200
O1871       O  0.51504595  0.28045436  0.55297328    -0.71500
O1872       O  0.51495268  0.28207568  0.61351818    -0.72500
O1873       O  0.56018421  0.28079324  0.58332955    -0.61100
O1874       O  0.97035484  0.28203475  0.58294524    -0.69600
O1875       O  0.94114738  0.22451287  0.58474817    -0.69100
O1876       O  0.53122587  0.22341463  0.58292505    -0.60400
O1877       O  0.98773400  0.22453023  0.61387177    -0.72900
O1878       O  0.98467975  0.22306858  0.55354481    -0.71700
Cu1879     Cu  0.51619244  0.28335702  0.58318515     1.04600
Cu1880     Cu  0.98516979  0.22188824  0.58378491     1.04300
C1881       C  0.99965863  0.25148684  0.54363080     0.94600
C1882       C  0.00137721  0.25343509  0.62323131     0.93800
C1883       C  0.56012159  0.25201380  0.58297185     0.85900
C1884       C  0.94157611  0.25345375  0.58397129     0.92200
O1885       O  0.78198870  0.46900119  0.58414354    -0.71500
O1886       O  0.69045629  0.46728349  0.58347950    -0.72500
O1887       O  0.73642710  0.46709864  0.55341954    -0.61100
O1888       O  0.73639065  0.46887385  0.61391599    -0.69600
O1889       O  0.76317977  0.02696265  0.61343530    -0.69100
O1890       O  0.76256532  0.02516091  0.55304317    -0.60400
O1891       O  0.71770556  0.02527650  0.58317939    -0.72900
O1892       O  0.80877654  0.02678426  0.58321747    -0.71700
Cu1893     Cu  0.73532650  0.46601444  0.58374404     1.04600
Cu1894     Cu  0.76406979  0.02801663  0.58319307     1.04300
C1895       C  0.80929157  0.99830586  0.58377951     0.94600
C1896       C  0.68913099  0.99642140  0.58332992     0.93800
C1897       C  0.74877837  0.99622718  0.54368886     0.85900
C1898       C  0.74946354  0.99843113  0.62321963     0.92200
O1899       O  0.76631109  0.28138131  0.55249611    -0.71500
O1900       O  0.76441411  0.28070274  0.61301011    -0.72500
O1901       O  0.81117107  0.28196146  0.58302437    -0.61100
O1902       O  0.72007219  0.28054155  0.58234090    -0.69600
O1903       O  0.69179301  0.22315556  0.58241038    -0.69100
O1904       O  0.78309007  0.22434634  0.58322178    -0.60400
O1905       O  0.73693977  0.22308127  0.61276229    -0.72900
O1906       O  0.73822273  0.22398307  0.55259730    -0.71700
Cu1907     Cu  0.76648621  0.28316808  0.58272884     1.04600
Cu1908     Cu  0.73650886  0.22164839  0.58271388     1.04300
C1909       C  0.75240023  0.25263433  0.54292028     0.94600
C1910       C  0.75057225  0.25171633  0.62236403     0.93800
C1911       C  0.81149895  0.25339682  0.58332113     0.85900
C1912       C  0.69141949  0.25174220  0.58230652     0.92200
O1913       O  0.96761105  0.43819329  0.75079272    -0.71500
O1914       O  0.55720042  0.02826117  0.74992758    -0.72500
O1915       O  0.51330945  0.48352486  0.78046504    -0.61100
O1916       O  0.51233163  0.48250300  0.72033951    -0.69600
O1917       O  0.98206230  0.01197435  0.72043402    -0.69100
O1918       O  0.98447770  0.01291997  0.78089262    -0.60400
O1919       O  0.52861732  0.05736361  0.75002905    -0.72900
O1920       O  0.93856336  0.46680993  0.75107043    -0.71700
Cu1921     Cu  0.51381917  0.48210726  0.75039688     1.04600
Cu1922     Cu  0.98216385  0.01341413  0.75068858     1.04300
C1923       C  0.93865849  0.43807985  0.75102838     0.94600
C1924       C  0.55740973  0.05711629  0.74974950     0.93800
C1925       C  0.99884656  0.99811816  0.79018307     0.85900
C1926       C  0.99654534  0.99764676  0.71073157     0.92200
O1927       O  0.51143563  0.23534613  0.78033240    -0.71500
O1928       O  0.51245575  0.23685526  0.71996203    -0.72500
O1929       O  0.55700262  0.28113104  0.75054881    -0.61100
O1930       O  0.96706740  0.19090624  0.74972118    -0.69600
O1931       O  0.93760877  0.21911103  0.74978818    -0.69100
O1932       O  0.52797445  0.30978452  0.75078302    -0.60400
O1933       O  0.98337450  0.26550241  0.72004774    -0.72900
O1934       O  0.98209302  0.26366741  0.78049867    -0.71700
Cu1935     Cu  0.51297050  0.23508403  0.75013262     1.04600
Cu1936     Cu  0.98171182  0.26549618  0.75028864     1.04300
C1937       C  0.99671928  0.24940185  0.79006286     0.94600
C1938       C  0.99813516  0.25142000  0.71038984     0.93800
C1939       C  0.55692256  0.30983530  0.75082635     0.85900
C1940       C  0.93799547  0.19052763  0.74959155     0.92200
O1941       O  0.71731140  0.44060224  0.75113667    -0.71500
O1942       O  0.80820800  0.03020908  0.74977809    -0.72500
O1943       O  0.76369459  0.48769014  0.78042182    -0.61100
O1944       O  0.76173135  0.48453488  0.72011852    -0.69600
O1945       O  0.73421492  0.01370538  0.71997258    -0.69100
O1946       O  0.73316802  0.01326920  0.78051062    -0.60400
O1947       O  0.77888603  0.05855757  0.75028395    -0.72900
O1948       O  0.68794445  0.46890639  0.75018368    -0.71700
Cu1949     Cu  0.76352842  0.48501737  0.75027861     1.04600
Cu1950     Cu  0.73272448  0.01457306  0.75024277     1.04300
C1951       C  0.68825039  0.44032722  0.75087882     0.94600
C1952       C  0.80791299  0.05882307  0.74987569     0.93800
C1953       C  0.74857007  0.99977493  0.79005101     0.85900
C1954       C  0.74855062  0.99907391  0.71041919     0.92200
O1955       O  0.76257543  0.23145736  0.77927135    -0.71500
O1956       O  0.76389694  0.23360794  0.71880439    -0.72500
O1957       O  0.80842129  0.27791132  0.74958849    -0.61100
O1958       O  0.71812207  0.18721868  0.74854608    -0.69600
O1959       O  0.68905345  0.21583104  0.74877735    -0.69100
O1960       O  0.77905838  0.30620256  0.74989783    -0.60400
O1961       O  0.73472204  0.26210457  0.71921386    -0.72900
O1962       O  0.73328432  0.25985083  0.77941447    -0.71700
Cu1963     Cu  0.76429809  0.23155090  0.74903304     1.04600
Cu1964     Cu  0.73304264  0.26195333  0.74932961     1.04300
C1965       C  0.74763252  0.24532538  0.78896926     0.94600
C1966       C  0.74945988  0.24820949  0.70937590     0.93800
C1967       C  0.80812045  0.30653298  0.74994764     0.85900
C1968       C  0.68916287  0.18713827  0.74854933     0.92200
C1969       C  0.90484147  0.12514419  0.75031699     0.25000
C1970       C  0.90472160  0.15679961  0.74930160    -0.23100
C1971       C  0.87238960  0.15575677  0.74810995     0.19900
C1972       C  0.84114596  0.12408934  0.74822205     0.24900
C1973       C  0.84124609  0.09246245  0.74950877    -0.23100
C1974       C  0.87358596  0.09346634  0.75043036     0.19800
F1975       F  0.87524377  0.06381019  0.75158299    -0.13000
F1976       F  0.93522008  0.12455727  0.75132799    -0.15400
F1977       F  0.81077714  0.12465451  0.74698717    -0.15400
F1978       F  0.87072155  0.18538252  0.74675929    -0.13000
C1979       C  0.59130643  0.37482881  0.75467743     0.25000
C1980       C  0.59056203  0.34319017  0.75115468    -0.23100
C1981       C  0.62242011  0.34382500  0.74793198     0.19900
C1982       C  0.65403040  0.37517740  0.74801313     0.24900
C1983       C  0.65473311  0.40685273  0.75128589    -0.23100
C1984       C  0.62292133  0.40617870  0.75476219     0.19800
F1985       F  0.62219410  0.43585992  0.75850015    -0.13000
F1986       F  0.56146682  0.37563300  0.75826102    -0.15400
F1987       F  0.68388727  0.37435985  0.74452980    -0.15400
F1988       F  0.62320705  0.31412736  0.74436466    -0.13000
C1989       C  0.90514779  0.37270454  0.75109865     0.25000
C1990       C  0.90519258  0.40447133  0.75108430    -0.23100
C1991       C  0.87288307  0.40361017  0.75087209     0.19900
C1992       C  0.84153560  0.37198121  0.75053974     0.24900
C1993       C  0.84151062  0.34021549  0.75042143    -0.23100
C1994       C  0.87382451  0.34109937  0.75075552     0.19800
F1995       F  0.87541865  0.31136477  0.75071880    -0.13000
F1996       F  0.93546194  0.37192647  0.75139883    -0.15400
F1997       F  0.81120308  0.37272390  0.75025871    -0.15400
F1998       F  0.87133865  0.43337404  0.75089972    -0.13000
C1999       C  0.62297078  0.09075152  0.75202303     0.25000
C2000       C  0.59116093  0.09034262  0.74919483    -0.23100
C2001       C  0.59205874  0.12207974  0.74578082     0.19900
C2002       C  0.62376620  0.15330290  0.74539950     0.24900
C2003       C  0.65554908  0.15376000  0.74844718    -0.23100
C2004       C  0.65468985  0.12199091  0.75165415     0.19800
F2005       F  0.68450305  0.12095030  0.75476748    -0.13000
F2006       F  0.62360104  0.06094420  0.75544854    -0.15400
F2007       F  0.62313965  0.18307958  0.74184457    -0.15400
F2008       F  0.56226878  0.12312606  0.74257962    -0.13000
C2009       C  0.76364577  0.23250139  0.65472371     0.25000
C2010       C  0.75049715  0.25110812  0.64446456    -0.23100
C2011       C  0.73680879  0.26855919  0.65542054     0.19900
C2012       C  0.73612567  0.26737214  0.67647314     0.24900
C2013       C  0.74976747  0.24911066  0.68698291    -0.23100
C2014       C  0.76361469  0.23171716  0.67577738     0.19800
F2015       F  0.77708525  0.21379210  0.68507578    -0.13000
F2016       F  0.77725020  0.21566300  0.64430860    -0.15400
F2017       F  0.72196790  0.28409150  0.68645940    -0.15400
F2018       F  0.72309042  0.28589127  0.64569013    -0.13000
C2019       C  0.73655578  0.01752098  0.65585829     0.25000
C2020       C  0.74965310  0.99902902  0.64537467    -0.23100
C2021       C  0.76275945  0.48056933  0.65625441     0.19900
C2022       C  0.76226853  0.48081128  0.67731348     0.24900
C2023       C  0.74912558  0.99926201  0.68797969    -0.23100
C2024       C  0.73598737  0.01744796  0.67694372     0.19800
F2025       F  0.72254014  0.03525318  0.68645037    -0.13000
F2026       F  0.72339521  0.03491063  0.64564155    -0.15400
F2027       F  0.77589030  0.46365737  0.68732084    -0.15400
F2028       F  0.77695672  0.46360037  0.64656233    -0.13000
C2029       C  0.88149206  0.23216778  0.59727839     0.25000
C2030       C  0.90856266  0.25391782  0.58412052    -0.23100
C2031       C  0.90381297  0.27604423  0.57100129     0.19900
C2032       C  0.87222281  0.27606836  0.57084558     0.24900
C2033       C  0.84497858  0.25393165  0.58378179    -0.23100
C2034       C  0.84987388  0.23214663  0.59708915     0.19800
F2035       F  0.82436768  0.21157439  0.61028182    -0.13000
F2036       F  0.88604242  0.21169485  0.61069834    -0.15400
F2037       F  0.86777125  0.29676387  0.55754660    -0.15400
F2038       F  0.92931619  0.29671062  0.55782948    -0.13000
C2039       C  0.65723630  0.28311785  0.58330970     0.25000
C2040       C  0.65776232  0.25168616  0.58224717    -0.23100
C2041       C  0.62575926  0.22034117  0.58125668     0.19900
C2042       C  0.59417228  0.22042334  0.58142443     0.24900
C2043       C  0.59367033  0.25185639  0.58262064    -0.23100
C2044       C  0.62569392  0.28319800  0.58349816     0.19800
F2045       F  0.62679337  0.31423919  0.58464815    -0.13000
F2046       F  0.68726172  0.31410225  0.58430794    -0.15400
F2047       F  0.56410096  0.18949654  0.58037263    -0.15400
F2048       F  0.62476322  0.18935426  0.58008924    -0.13000
C2049       C  0.50689834  0.22955950  0.65616499     0.25000
C2050       C  0.00113000  0.25348319  0.64544998    -0.23100
C2051       C  0.99406433  0.27660976  0.65611720     0.19900
C2052       C  0.99260901  0.27571689  0.67719579     0.24900
C2053       C  0.99880494  0.25200106  0.68802527    -0.23100
C2054       C  0.50592007  0.22889772  0.67721179     0.19800
F2055       F  0.51139031  0.20514586  0.68693657    -0.13000
F2056       F  0.51414059  0.20714000  0.64624323    -0.15400
F2057       F  0.98538574  0.29829677  0.68693486    -0.15400
F2058       F  0.98750018  0.29939712  0.64610607    -0.13000
C2059       C  0.90415683  0.02609800  0.57465634     0.25000
C2060       C  0.90700904  0.99952128  0.58440545    -0.23100
C2061       C  0.87874246  0.47283666  0.59466448     0.19900
C2062       C  0.84701183  0.47253322  0.59446740     0.24900
C2063       C  0.84294817  0.99891848  0.58412788    -0.23100
C2064       C  0.87239838  0.02578404  0.57450677     0.19800
F2065       F  0.87021145  0.05119243  0.56439016    -0.13000
F2066       F  0.93180440  0.05181918  0.56469694    -0.15400
F2067       F  0.81938659  0.44689829  0.60449225    -0.15400
F2068       F  0.88090839  0.44746214  0.60484090    -0.13000
C2069       C  0.62337688  0.02730856  0.57898209     0.25000
C2070       C  0.59193453  0.99718746  0.58396552    -0.23100
C2071       C  0.59312062  0.46522003  0.58656566     0.19900
C2072       C  0.62459008  0.46491209  0.58635925     0.24900
C2073       C  0.65556517  0.99638576  0.58329707    -0.23100
C2074       C  0.65474470  0.02691850  0.57863973     0.19800
F2075       F  0.68425820  0.05653655  0.57342637    -0.13000
F2076       F  0.62388762  0.05720821  0.57403340    -0.15400
F2077       F  0.62371756  0.43428507  0.58945858    -0.15400
F2078       F  0.56315618  0.43485234  0.58985477    -0.13000
C2079       C  0.51800603  0.98724933  0.65666882     0.25000
C2080       C  0.99786824  0.99799960  0.64591734    -0.23100
C2081       C  0.97832248  0.50724752  0.65618741     0.19900
C2082       C  0.97758058  0.50705027  0.67724000     0.24900
C2083       C  0.99676580  0.99769742  0.68837057    -0.23100
C2084       C  0.51773358  0.98731312  0.67770229     0.19800
F2085       F  0.53848745  0.97767962  0.68752757    -0.13000
F2086       F  0.53859746  0.97743090  0.64674999    -0.15400
F2087       F  0.95712985  0.51751437  0.68670407    -0.15400
F2088       F  0.95890763  0.51797448  0.64584096    -0.13000
C2089       C  0.76686705  0.23352883  0.82228516     0.25000
C2090       C  0.74713243  0.24491560  0.81135347    -0.23100
C2091       C  0.72722974  0.25641316  0.82209569     0.19900
C2092       C  0.72767888  0.25725625  0.84313739     0.24900
C2093       C  0.74798078  0.24654947  0.85406215    -0.23100
C2094       C  0.76731474  0.23437115  0.84333988     0.19800
F2095       F  0.78713135  0.22354358  0.85314135    -0.13000
F2096       F  0.78622426  0.22188039  0.81269068    -0.15400
F2097       F  0.70782461  0.26832532  0.85272981    -0.15400
F2098       F  0.70693839  0.26669444  0.81232359    -0.13000
C2099       C  0.77985229  0.51254252  0.82250208     0.25000
C2100       C  0.74869003  0.99992155  0.81222479    -0.23100
C2101       C  0.71760125  0.98931113  0.82300197     0.19900
C2102       C  0.71772471  0.98929973  0.84408890     0.24900
C2103       C  0.74894159  0.99987455  0.85464585    -0.23100
C2104       C  0.77995124  0.51236398  0.84358294     0.19800
F2105       F  0.81056934  0.52362111  0.85348753    -0.13000
F2106       F  0.81036851  0.52388864  0.81238390    -0.15400
F2107       F  0.68719230  0.97784441  0.85420394    -0.15400
F2108       F  0.68695108  0.97781487  0.81309305    -0.13000
C2109       C  0.90615440  0.12529758  0.91782399     0.25000
C2110       C  0.90626693  0.15706200  0.91709528    -0.23100
C2111       C  0.87401700  0.15624743  0.91592978     0.19900
C2112       C  0.84265296  0.12467015  0.91557491     0.24900
C2113       C  0.84252522  0.09290482  0.91644509    -0.23100
C2114       C  0.87478921  0.09371972  0.91747785     0.19800
F2115       F  0.87627980  0.06394985  0.91821881    -0.13000
F2116       F  0.93641715  0.12450643  0.91894740    -0.15400
F2117       F  0.81240599  0.12546272  0.91430126    -0.15400
F2118       F  0.87254264  0.18601900  0.91505677    -0.13000
C2119       C  0.59220027  0.37554278  0.91766779     0.25000
C2120       C  0.59196279  0.34369762  0.91759025    -0.23100
C2121       C  0.62417770  0.34433465  0.91740422     0.19900
C2122       C  0.65561474  0.37580308  0.91706002     0.24900
C2123       C  0.65585475  0.40764312  0.91690589    -0.23100
C2124       C  0.62365777  0.40703104  0.91732251     0.19800
F2125       F  0.62232490  0.43690676  0.91737924    -0.13000
F2126       F  0.56197846  0.37649608  0.91804795    -0.15400
F2127       F  0.68582955  0.37482348  0.91691994    -0.15400
F2128       F  0.62556700  0.31449074  0.91756557    -0.13000
C2129       C  0.48225758  0.26608569  0.84453315     0.25000
C2130       C  0.99821044  0.25033815  0.85526765    -0.23100
C2131       C  0.01341407  0.23405299  0.84429035     0.19900
C2132       C  0.01272193  0.23355682  0.82323284     0.24900
C2133       C  0.99688688  0.24941055  0.81248897    -0.23100
C2134       C  0.48160682  0.26563068  0.82346636     0.19800
F2135       F  0.46598394  0.28129411  0.81391106    -0.13000
F2136       F  0.46717441  0.28210746  0.85432824    -0.15400
F2137       F  0.02771308  0.21743311  0.81345492    -0.15400
F2138       F  0.02909525  0.21843914  0.85383755    -0.13000
C2139       C  0.87396682  0.40483237  0.91342111     0.25000
C2140       C  0.90570151  0.40547473  0.91707241    -0.23100
C2141       C  0.90488076  0.37378764  0.92053471     0.19900
C2142       C  0.87331760  0.34242129  0.92033942     0.24900
C2143       C  0.84159132  0.34175188  0.91662988    -0.23100
C2144       C  0.84237674  0.37343377  0.91322149     0.19800
F2145       F  0.81262228  0.37422198  0.90938344    -0.13000
F2146       F  0.87331421  0.43455371  0.90971629    -0.15400
F2147       F  0.87401000  0.31272432  0.92406407    -0.15400
F2148       F  0.93460879  0.37292174  0.92433356    -0.13000
C2149       C  0.59258265  0.12253631  0.91577734     0.25000
C2150       C  0.59255309  0.09079163  0.91598142    -0.23100
C2151       C  0.62485351  0.09161977  0.91586846     0.19900
C2152       C  0.65620180  0.12323125  0.91583746     0.24900
C2153       C  0.65619570  0.15496698  0.91591301    -0.23100
C2154       C  0.62389256  0.15410875  0.91576436     0.19800
F2155       F  0.62229028  0.18384045  0.91563634    -0.13000
F2156       F  0.56227570  0.12333159  0.91558506    -0.15400
F2157       F  0.68655150  0.12251166  0.91571131    -0.15400
F2158       F  0.62638838  0.06185107  0.91578810    -0.13000
C2159       C  0.00071893  0.52617065  0.82315051     0.25000
C2160       C  0.99951632  0.99808424  0.81241920    -0.23100
C2161       C  0.49933161  0.97050558  0.82295970     0.19900
C2162       C  0.49957797  0.97028939  0.84402122     0.24900
C2163       C  0.00000305  0.99764044  0.85492315    -0.23100
C2164       C  0.00068835  0.52592518  0.84420883     0.19800
F2165       F  0.00267337  0.55351572  0.85421593    -0.13000
F2166       F  0.00266684  0.55393931  0.81338595    -0.15400
F2167       F  0.49830344  0.94277378  0.85372335    -0.15400
F2168       F  0.49784470  0.94317747  0.81290395    -0.13000
C2169       C  0.71715487  0.23886184  0.98861501     0.25000
C2170       C  0.74815425  0.24889727  0.97794042    -0.23100
C2171       C  0.77916235  0.25903426  0.98852013     0.19900
C2172       C  0.77932822  0.25937790  0.00955519     0.24900
C2173       C  0.74820418  0.24893336  0.02044741    -0.23100
C2174       C  0.71705054  0.23860700  0.00967810     0.19800
F2175       F  0.68640486  0.22835891  0.01942783    -0.13000
F2176       F  0.68673298  0.22833064  0.97862240    -0.15400
F2177       F  0.81004404  0.26975005  0.01916120    -0.15400
F2178       F  0.80955692  0.26942644  0.97844534    -0.13000
C2179       C  0.71729984  0.37332906  0.08499889     0.25000
C2180       C  0.74867181  0.40518350  0.08332261    -0.23100
C2181       C  0.78027101  0.40470734  0.08187917     0.19900
C2182       C  0.78043912  0.37331924  0.08194353     0.24900
C2183       C  0.74901235  0.34144605  0.08339296    -0.23100
C2184       C  0.71746926  0.34195711  0.08507110     0.19800
F2185       F  0.68649022  0.31208083  0.08690658    -0.13000
F2186       F  0.68616534  0.37226050  0.08667994    -0.15400
F2187       F  0.81160119  0.37438781  0.08045839    -0.15400
F2188       F  0.81127976  0.43461031  0.08023973    -0.13000
C2189       C  0.77968162  0.15420182  0.07948451     0.25000
C2190       C  0.74840075  0.15500213  0.08192960    -0.23100
C2191       C  0.71704400  0.12329301  0.08433573     0.19900
C2192       C  0.71703480  0.09180757  0.08452605     0.24900
C2193       C  0.74836992  0.09103794  0.08227072    -0.23100
C2194       C  0.77967613  0.12272198  0.07968077     0.19800
F2195       F  0.81055457  0.12350146  0.07720907    -0.13000
F2196       F  0.81054510  0.18388964  0.07673638    -0.15400
F2197       F  0.68612824  0.06210261  0.08713355    -0.15400
F2198       F  0.68614463  0.12250364  0.08672448    -0.13000
C2199       C  0.73709272  0.01748883  0.98978194     0.25000
C2200       C  0.74896991  0.99810065  0.97881524    -0.23100
C2201       C  0.75969556  0.47877524  0.98927105     0.19900
C2202       C  0.75939306  0.47835608  0.01035664     0.24900
C2203       C  0.74736088  0.49746931  0.02112236    -0.23100
C2204       C  0.73630628  0.01660327  0.01083764     0.19800
F2205       F  0.72516503  0.03580170  0.02103478    -0.13000
F2206       F  0.72660123  0.03774186  0.98023722    -0.15400
F2207       F  0.77019768  0.45869233  0.02030693    -0.15400
F2208       F  0.77071120  0.45916246  0.97943226    -0.13000
C2209       C  0.46904191  0.22798423  0.01090899     0.25000
C2210       C  0.99988072  0.24982372  0.02162692    -0.23100
C2211       C  0.03048948  0.27180473  0.01068745     0.19900
C2212       C  0.03024054  0.27168446  0.98962939     0.24900
C2213       C  0.99946512  0.25003048  0.97917196    -0.23100
C2214       C  0.46888394  0.22831030  0.98984921     0.19800
F2215       F  0.43901373  0.20690539  0.97982689    -0.13000
F2216       F  0.43909864  0.20586668  0.02071179    -0.15400
F2217       F  0.05990531  0.29324209  0.97940414    -0.15400
F2218       F  0.06059882  0.29388675  0.02028100    -0.13000
C2219       C  0.53181150  0.40585795  0.07959205     0.25000
C2220       C  0.00090377  0.40679240  0.08343611    -0.23100
C2221       C  0.96998061  0.37527976  0.08719669     0.19900
C2222       C  0.97001173  0.34382102  0.08729424     0.24900
C2223       C  0.00096532  0.34290382  0.08362511    -0.23100
C2224       C  0.53183749  0.37437461  0.07967921     0.19800
F2225       F  0.56217113  0.37484810  0.07555455    -0.13000
F2226       F  0.56214798  0.43536779  0.07541805    -0.15400
F2227       F  0.93958043  0.31428959  0.09126546    -0.15400
F2228       F  0.93953117  0.37470794  0.09108054    -0.13000
C2229       C  0.53158806  0.15568400  0.08537249     0.25000
C2230       C  0.00023187  0.15643817  0.08334313    -0.23100
C2231       C  0.96883279  0.12474183  0.08116735     0.19900
C2232       C  0.96876844  0.09323541  0.08117655     0.24900
C2233       C  0.00011145  0.09248497  0.08335143    -0.23100
C2234       C  0.53152717  0.12419860  0.08536942     0.19800
F2235       F  0.56245573  0.12500126  0.08753424    -0.13000
F2236       F  0.56257637  0.18541590  0.08756941    -0.15400
F2237       F  0.93782207  0.06349668  0.07885141    -0.15400
F2238       F  0.93796093  0.12399543  0.07881873    -0.13000
C2239       C  0.52672276  0.99843036  0.01070636     0.25000
C2240       C  0.00063717  0.50016489  0.02147945    -0.23100
C2241       C  0.97444863  0.50260968  0.01085740     0.19900
C2242       C  0.97442666  0.50282463  0.98977787     0.24900
C2243       C  0.00009361  0.99988069  0.97890487    -0.23100
C2244       C  0.52654826  0.99803755  0.98965310     0.19800
F2245       F  0.55267834  0.99643607  0.97981567    -0.13000
F2246       F  0.55245619  0.99625656  0.02056903    -0.15400
F2247       F  0.94865656  0.50515987  0.98007399    -0.15400
F2248       F  0.94921704  0.50554346  0.02087523    -0.13000
C2249       C  0.73235363  0.22072668  0.48884631     0.25000
C2250       C  0.75147134  0.25167405  0.47780555    -0.23100
C2251       C  0.77139589  0.28295045  0.48842934     0.19900
C2252       C  0.77185090  0.28329062  0.50949741     0.24900
C2253       C  0.75243956  0.25236333  0.52053072    -0.23100
C2254       C  0.73282860  0.22106171  0.50988743     0.19800
F2255       F  0.71359018  0.19052266  0.51975751    -0.13000
F2256       F  0.71274455  0.18989654  0.47937182    -0.15400
F2257       F  0.79168341  0.31404395  0.51900479    -0.15400
F2258       F  0.79090415  0.31339584  0.47851327    -0.13000
C2259       C  0.74022819  0.01910315  0.51117454     0.25000
C2260       C  0.74798395  0.99611751  0.52146065    -0.23100
C2261       C  0.75545778  0.47284082  0.51024898     0.19900
C2262       C  0.75544202  0.47383106  0.48914811     0.24900
C2263       C  0.74796518  0.99765464  0.47896853    -0.23100
C2264       C  0.74022428  0.01987032  0.49011426     0.19800
F2265       F  0.73174394  0.04170181  0.48059271    -0.13000
F2266       F  0.73175741  0.04023428  0.52154984    -0.15400
F2267       F  0.76357903  0.45259927  0.47861312    -0.15400
F2268       F  0.76353290  0.45063413  0.51967479    -0.13000
C2269       C  0.99051895  0.22009722  0.51063041     0.25000
C2270       C  0.99932708  0.25087351  0.52123214    -0.23100
C2271       C  0.50807079  0.28117313  0.51016097     0.19900
C2272       C  0.50819661  0.28079246  0.48909953     0.24900
C2273       C  0.99959006  0.25009131  0.47847155    -0.23100
C2274       C  0.99067513  0.21971668  0.48953591     0.19800
F2275       F  0.98262713  0.18959167  0.48002005    -0.13000
F2276       F  0.98233369  0.19031818  0.52061509    -0.15400
F2277       F  0.51629249  0.31059813  0.47917516    -0.15400
F2278       F  0.51603243  0.31129618  0.51965151    -0.13000
C2279       C  0.87274577  0.27732128  0.42512820     0.25000
C2280       C  0.84301184  0.24989950  0.41613791    -0.23100
C2281       C  0.84534886  0.22226856  0.40741162     0.19900
C2282       C  0.87687087  0.22214823  0.40759679     0.24900
C2283       C  0.90665998  0.24967572  0.41649597    -0.23100
C2284       C  0.90426838  0.27722505  0.42529145     0.19800
F2285       F  0.93223023  0.30372418  0.43451872    -0.13000
F2286       F  0.87114289  0.30385502  0.43425317    -0.15400
F2287       F  0.87844201  0.19556323  0.39851602    -0.15400
F2288       F  0.81738835  0.19579948  0.39816035    -0.13000
C2289       C  0.62496576  0.28174538  0.41252328     0.25000
C2290       C  0.59316787  0.25053070  0.41499492    -0.23100
C2291       C  0.59385046  0.21929906  0.41692176     0.19900
C2292       C  0.62544415  0.21935550  0.41683472     0.24900
C2293       C  0.65731033  0.25065674  0.41484508    -0.23100
C2294       C  0.65659895  0.28181436  0.41248025     0.19800
F2295       F  0.68648865  0.31257562  0.40999962    -0.13000
F2296       F  0.62569340  0.31242223  0.40998983    -0.15400
F2297       F  0.62457124  0.18853023  0.41889563    -0.15400
F2298       F  0.56395725  0.18844031  0.41909696    -0.13000
C2299       C  0.52279016  0.03078459  0.51158872     0.25000
C2300       C  0.50067553  0.99997418  0.52214732    -0.23100
C2301       C  0.97786121  0.47139544  0.51104875     0.19900
C2302       C  0.97797226  0.47228491  0.49001168     0.24900
C2303       C  0.50107764  0.00129770  0.47945233    -0.23100
C2304       C  0.52295419  0.03144068  0.49053618     0.19800
F2305       F  0.54508295  0.06164041  0.48107034    -0.13000
F2306       F  0.54478348  0.06040481  0.52155745    -0.15400
F2307       F  0.95465211  0.44337575  0.47994631    -0.15400
F2308       F  0.95444051  0.44165914  0.52045161    -0.13000
C2309       C  0.87798960  0.47395713  0.41164213     0.29800
C2310       C  0.90823161  0.00288598  0.41730333    -0.23100
C2311       C  0.90671392  0.03269878  0.42283790     0.19900
C2312       C  0.87496767  0.03242270  0.42282368     0.24900
C2313       C  0.84389015  0.00232185  0.41724430    -0.23100
C2314       C  0.84626944  0.47370960  0.41166010     0.19800
F2315       F  0.81710384  0.44421570  0.40595859    -0.13000
F2316       F  0.87818708  0.44474650  0.40584190    -0.15400
F2317       F  0.87476719  0.06163683  0.42861642    -0.15400
F2318       F  0.93585373  0.06211211  0.42866476    -0.13000
C2319       C  0.65359658  0.02573275  0.42920518     0.25000
C2320       C  0.65780673  0.00243945  0.41678219    -0.23100
C2321       C  0.63064608  0.47991857  0.40539973     0.19900
C2322       C  0.59909977  0.48003950  0.40551591     0.24900
C2323       C  0.59441744  0.00301234  0.41694316    -0.23100
C2324       C  0.62212013  0.02599935  0.42929818     0.19800
F2325       F  0.61830535  0.04791511  0.44195563    -0.13000
F2326       F  0.67959085  0.04746867  0.44173802    -0.15400
F2327       F  0.57286691  0.45768568  0.39331774    -0.15400
F2328       F  0.63422896  0.45747384  0.39308123    -0.13000
C2329       C  0.78048345  0.26998011  0.15532033     0.25000
C2330       C  0.74937881  0.24926053  0.14462936    -0.23100
C2331       C  0.71822034  0.22965474  0.15556194     0.19900
C2332       C  0.71822584  0.23037690  0.17659242     0.24900
C2333       C  0.74940370  0.25068885  0.18729665    -0.23100
C2334       C  0.78048746  0.27069950  0.17636750     0.19800
F2335       F  0.81103556  0.29147108  0.18596160    -0.13000
F2336       F  0.81103737  0.29008650  0.14548849    -0.15400
F2337       F  0.68753761  0.21072084  0.18639249    -0.15400
F2338       F  0.68752735  0.20934563  0.14599067    -0.13000
C2339       C  0.77676858  0.27774032  0.32188777     0.25000
C2340       C  0.74953738  0.25030794  0.31125229    -0.23100
C2341       C  0.72257748  0.22273195  0.32203712     0.19900
C2342       C  0.72306809  0.22240710  0.34308212     0.24900
C2343       C  0.75027848  0.24990448  0.35373314    -0.23100
C2344       C  0.77708613  0.27760377  0.34292044     0.19800
F2345       F  0.80401892  0.30435348  0.35267310    -0.13000
F2346       F  0.80277237  0.30514612  0.31194272    -0.15400
F2347       F  0.69650466  0.19547880  0.35301304    -0.15400
F2348       F  0.69603277  0.19569682  0.31222521    -0.13000
C2349       C  0.78251389  0.37582343  0.24959962     0.25000
C2350       C  0.75065661  0.34418153  0.25003525    -0.23100
C2351       C  0.71937331  0.34527040  0.25098651     0.19900
C2352       C  0.71989857  0.37698128  0.25139190     0.24900
C2353       C  0.75173495  0.40862780  0.25083352    -0.23100
C2354       C  0.78304016  0.40754985  0.25001045     0.19800
F2355       F  0.81444100  0.43719158  0.24954218    -0.13000
F2356       F  0.81346845  0.37635561  0.24872996    -0.15400
F2357       F  0.68893755  0.37641987  0.25233958    -0.15400
F2358       F  0.68797158  0.31563978  0.25156377    -0.13000
C2359       C  0.71892101  0.09437166  0.24771701     0.25000
C2360       C  0.75051351  0.09409432  0.24994534    -0.23100
C2361       C  0.78163956  0.12602219  0.25205158     0.19900
C2362       C  0.78123054  0.15727769  0.25190018     0.24900
C2363       C  0.74966948  0.15758805  0.24960502    -0.23100
C2364       C  0.71851058  0.12564592  0.24755860     0.19800
F2365       F  0.68740364  0.12441481  0.24523484    -0.13000
F2366       F  0.68817763  0.06438034  0.24548987    -0.15400
F2367       F  0.81197650  0.18723433  0.25419512    -0.15400
F2368       F  0.81273451  0.12725893  0.25445097    -0.13000
C2369       C  0.78083396  0.52042741  0.17685494     0.25000
C2370       C  0.75023568  0.49963729  0.18803136    -0.23100
C2371       C  0.71967585  0.97757971  0.17748641     0.19900
C2372       C  0.71932362  0.97710477  0.15641612     0.24900
C2373       C  0.74918123  0.49871728  0.14524318    -0.23100
C2374       C  0.78031797  0.51997062  0.15578754     0.19800
F2375       F  0.81045419  0.54087146  0.14578323    -0.13000
F2376       F  0.81142366  0.54179499  0.18623570    -0.15400
F2377       F  0.68943470  0.95415672  0.14693994    -0.15400
F2378       F  0.69010754  0.95509555  0.18747931    -0.13000
C2379       C  0.78408305  0.01944273  0.32342380     0.25000
C2380       C  0.75387740  0.50550917  0.31267501    -0.23100
C2381       C  0.72222483  0.48964845  0.32359911     0.19900
C2382       C  0.72226166  0.49060362  0.34463842     0.24900
C2383       C  0.75239789  0.00505484  0.35517068    -0.23100
C2384       C  0.78399610  0.02050585  0.34451771     0.19800
F2385       F  0.81479172  0.03558634  0.35458243    -0.13000
F2386       F  0.81527043  0.03392159  0.31371719    -0.15400
F2387       F  0.69138106  0.47508407  0.35469872    -0.15400
F2388       F  0.69100635  0.47291891  0.31403410    -0.13000
C2389       C  0.52419100  0.24210301  0.17731734     0.25000
C2390       C  0.00221245  0.25089305  0.18801645    -0.23100
C2391       C  0.97951654  0.25869322  0.17737639     0.19900
C2392       C  0.97907985  0.25809684  0.15632064     0.24900
C2393       C  0.00130441  0.24966503  0.14561288    -0.23100
C2394       C  0.52375150  0.24150582  0.15624571     0.19800
F2395       F  0.54440779  0.23187022  0.14623777    -0.13000
F2396       F  0.54520118  0.23295181  0.18729007    -0.15400
F2397       F  0.95776231  0.26686355  0.14636620    -0.15400
F2398       F  0.95853624  0.26793314  0.18736519    -0.13000
C2399       C  0.49451796  0.22134169  0.32207002     0.25000
C2400       C  0.00332098  0.25193524  0.31155034    -0.23100
C2401       C  0.01083864  0.28208976  0.32216576     0.19900
C2402       C  0.00938212  0.28168569  0.34322107     0.24900
C2403       C  0.00074154  0.25103725  0.35400423    -0.23100
C2404       C  0.49337960  0.22084510  0.34312537     0.19800
F2405       F  0.48557302  0.19089767  0.35278407    -0.13000
F2406       F  0.48749876  0.19204250  0.31190669    -0.15400
F2407       F  0.01582270  0.31116868  0.35295238    -0.15400
F2408       F  0.01881231  0.31173157  0.31208002    -0.13000
C2409       C  0.97268561  0.37763592  0.25067348     0.25000
C2410       C  0.00422676  0.40952540  0.25089719    -0.23100
C2411       C  0.53586568  0.40899275  0.25091001     0.19900
C2412       C  0.53591148  0.37751044  0.25061133     0.24900
C2413       C  0.00431372  0.34562774  0.25031946    -0.23100
C2414       C  0.97273149  0.34622533  0.25037592     0.19800
F2415       F  0.94152219  0.31636614  0.25007364    -0.13000
F2416       F  0.94143792  0.37653384  0.25069972    -0.15400
F2417       F  0.56710652  0.37849171  0.25064300    -0.15400
F2418       F  0.56702185  0.43892579  0.25120924    -0.13000
C2419       C  0.97076765  0.12671536  0.24784480     0.25000
C2420       C  0.00220220  0.15847295  0.24981935    -0.23100
C2421       C  0.53355119  0.15773821  0.25189117     0.19900
C2422       C  0.53348445  0.12627281  0.25211766     0.24900
C2423       C  0.00207148  0.09449541  0.25024506    -0.23100
C2424       C  0.97070379  0.09518316  0.24806982     0.19800
F2425       F  0.93976198  0.06536797  0.24596108    -0.13000
F2426       F  0.93987209  0.12593079  0.24553193    -0.15400
F2427       F  0.56445667  0.12718827  0.25434429    -0.15400
F2428       F  0.56459405  0.18749278  0.25384410    -0.13000
C2429       C  0.53234308  0.01141319  0.15624799     0.25000
C2430       C  0.00145812  0.50107759  0.14581584    -0.23100
C2431       C  0.97041468  0.49010076  0.15685076     0.19900
C2432       C  0.97072975  0.49038197  0.17793017     0.24900
C2433       C  0.00211045  0.50170175  0.18859627    -0.23100
C2434       C  0.53288418  0.01200519  0.17730264     0.19800
F2435       F  0.56381906  0.02274410  0.18673341    -0.13000
F2436       F  0.56280868  0.02161399  0.14630444    -0.15400
F2437       F  0.94014128  0.47983172  0.18781536    -0.15400
F2438       F  0.93955945  0.47937829  0.14732722    -0.13000
C2439       C  0.97631599  0.47638485  0.34479079     0.25000
C2440       C  0.50241858  0.00425344  0.35525614    -0.23100
C2441       C  0.52968729  0.03160033  0.34447240     0.19900
C2442       C  0.53035089  0.03095330  0.32339350     0.24900
C2443       C  0.50350019  0.00320549  0.31268791    -0.23100
C2444       C  0.97651172  0.47589480  0.32374808     0.19800
F2445       F  0.95052916  0.44822897  0.31403011    -0.13000
F2446       F  0.94960113  0.44959772  0.35472394    -0.15400
F2447       F  0.55692698  0.05787030  0.31346762    -0.15400
F2448       F  0.55614446  0.05866936  0.35430819    -0.13000
O2449       O  0.53140841  0.51597215  0.22048715    -0.71500
O2450       O  0.53236736  0.51736226  0.28093506    -0.72500
O2451       O  0.53325099  0.97202173  0.25061797    -0.61100
O2452       O  0.53120594  0.56120163  0.25044353    -0.69600
O2453       O  0.97353089  0.53232309  0.25102013    -0.69100
O2454       O  0.97556277  0.94278529  0.25071358    -0.60400
O2455       O  0.97477774  0.98753948  0.28090842    -0.72900
O2456       O  0.97388162  0.98720274  0.22064858    -0.71700
Cu2457     Cu  0.53390947  0.51756166  0.25069806     1.04600
Cu2458     Cu  0.97246086  0.98640480  0.25079020     1.04300
C2459       C  0.00252767  0.00158640  0.21080772     0.94600
C2460       C  0.50353108  0.50269345  0.29061076     0.93800
C2461       C  0.50465469  0.94311683  0.25061369     0.85900
C2462       C  0.50226341  0.56110217  0.25067750     0.92200
O2463       O  0.97600891  0.78388292  0.24972162    -0.71500
O2464       O  0.97412516  0.69269461  0.24999457    -0.72500
O2465       O  0.97453724  0.73836501  0.27998801    -0.61100
O2466       O  0.97517459  0.73819489  0.21975435    -0.69600
O2467       O  0.53301304  0.76497611  0.21962867    -0.69100
O2468       O  0.53228069  0.76666357  0.28021381    -0.60400
O2469       O  0.53179492  0.72060105  0.25048151    -0.72900
O2470       O  0.53370041  0.81184159  0.24935168    -0.71700
Cu2471     Cu  0.97299497  0.73734668  0.24985185     1.04600
Cu2472     Cu  0.53473804  0.76702873  0.24992155     1.04300
C2473       C  0.00504202  0.81236294  0.24954577     0.94600
C2474       C  0.00275577  0.69215081  0.25029399     0.93800
C2475       C  0.00322842  0.75252335  0.28970909     0.85900
C2476       C  0.00403376  0.75124781  0.21016855     0.92200
O2477       O  0.78224622  0.51770937  0.28034047    -0.71500
O2478       O  0.77997163  0.51496907  0.21978752    -0.72500
O2479       O  0.78087009  0.56137448  0.24957282    -0.61100
O2480       O  0.78010011  0.97046839  0.25018478    -0.69600
O2481       O  0.72244148  0.94211918  0.25062474    -0.69100
O2482       O  0.72321152  0.53254053  0.25017206    -0.60400
O2483       O  0.72190161  0.98657924  0.22027365    -0.72900
O2484       O  0.72318647  0.98782668  0.28068863    -0.71700
Cu2485     Cu  0.78306993  0.51723699  0.25001790     1.04600
Cu2486     Cu  0.72048504  0.98615835  0.25050022     1.04300
C2487       C  0.75215884  0.00242691  0.29016607     0.94600
C2488       C  0.75059444  0.00080419  0.21044553     0.93800
C2489       C  0.75190721  0.56129770  0.24978006     0.85900
C2490       C  0.75117634  0.94183171  0.25038149     0.92200
O2491       O  0.72062782  0.73654039  0.21949292    -0.71500
O2492       O  0.72037354  0.73549077  0.27971113    -0.72500
O2493       O  0.72063543  0.78143269  0.24986603    -0.61100
O2494       O  0.72092845  0.69106849  0.24937215    -0.69600
O2495       O  0.77859729  0.72001327  0.24960098    -0.69100
O2496       O  0.77830454  0.80987211  0.24947013    -0.60400
O2497       O  0.77820384  0.76503178  0.27966197    -0.72900
O2498       O  0.77832118  0.76484838  0.21934545    -0.71700
Cu2499     Cu  0.71861416  0.73513926  0.24960192     1.04600
Cu2500     Cu  0.78033447  0.76592071  0.24951372     1.04300
C2501       C  0.74942797  0.75073757  0.20980194     0.94600
C2502       C  0.74926297  0.75013046  0.28922285     0.93800
C2503       C  0.74954196  0.81009741  0.24972425     0.85900
C2504       C  0.74992593  0.69121224  0.24951950     0.92200
O2505       O  0.51587422  0.53234066  0.44783994    -0.71500
O2506       O  0.51774049  0.53321386  0.38736306    -0.72500
O2507       O  0.97145390  0.53288214  0.41725150    -0.61100
O2508       O  0.56204536  0.53279101  0.41817229    -0.69600
O2509       O  0.53247986  0.97438989  0.41646957    -0.69100
O2510       O  0.94198696  0.97439379  0.41740630    -0.60400
O2511       O  0.98704680  0.97520423  0.38694088    -0.72900
O2512       O  0.98735391  0.97360268  0.44719375    -0.71700
Cu2513     Cu  0.51778775  0.53484728  0.41765666     1.04600
Cu2514     Cu  0.98622718  0.97242515  0.41700326     1.04300
C2515       C  0.50165821  0.50337683  0.45721559     0.94600
C2516       C  0.50287462  0.50452501  0.37771735     0.93800
C2517       C  0.94266497  0.50415367  0.41726776     0.85900
C2518       C  0.56183296  0.50395705  0.41761952     0.92200
O2519       O  0.51387093  0.77766207  0.44652641    -0.71500
O2520       O  0.51517603  0.77871077  0.38622054    -0.72500
O2521       O  0.96946757  0.77854594  0.41628096    -0.61100
O2522       O  0.55942052  0.77757768  0.41647077    -0.69600
O2523       O  0.53036494  0.72014228  0.41615985    -0.69100
O2524       O  0.94034978  0.72101315  0.41602325    -0.60400
O2525       O  0.98556018  0.72105775  0.38588978    -0.72900
O2526       O  0.98489961  0.72024329  0.44647764    -0.71700
Cu2527     Cu  0.51549635  0.78010474  0.41639465     1.04600
Cu2528     Cu  0.98428036  0.71858179  0.41614288     1.04300
C2529       C  0.99912987  0.74893730  0.45613224     0.94600
C2530       C  0.00051982  0.75007621  0.37659588     0.93800
C2531       C  0.94064170  0.74989119  0.41605631     0.85900
C2532       C  0.55925112  0.74875182  0.41624869     0.92200
O2533       O  0.72058908  0.53214920  0.41777307    -0.71500
O2534       O  0.81095314  0.53196202  0.41832588    -0.72500
O2535       O  0.76804767  0.53470029  0.38762338    -0.61100
O2536       O  0.76353919  0.52909023  0.44817138    -0.69600
O2537       O  0.73537953  0.97102569  0.44658502    -0.69100
O2538       O  0.73655147  0.97501246  0.38627354    -0.60400
O2539       O  0.78148501  0.97334427  0.41616842    -0.72900
O2540       O  0.69068835  0.97325874  0.41640583    -0.71700
Cu2541     Cu  0.76678729  0.53400103  0.41802530     1.04600
Cu2542     Cu  0.73501892  0.97115158  0.41632293     1.04300
C2543       C  0.69187760  0.50341253  0.41722474     0.94600
C2544       C  0.81113838  0.50337259  0.41713988     0.93800
C2545       C  0.75326035  0.50660548  0.37741942     0.85900
C2546       C  0.74945465  0.49947630  0.45683999     0.92200
O2547       O  0.73528010  0.72012106  0.38582615    -0.71500
O2548       O  0.73689362  0.72122148  0.44622740    -0.72500
O2549       O  0.69064051  0.72020469  0.41639016    -0.61100
O2550       O  0.78148029  0.72094188  0.41555538    -0.69600
O2551       O  0.80995883  0.77846508  0.41584953    -0.69100
O2552       O  0.71910431  0.77761676  0.41571131    -0.60400
O2553       O  0.76472863  0.77862688  0.44585761    -0.72900
O2554       O  0.76456464  0.77762315  0.38568481    -0.71700
Cu2555     Cu  0.73508251  0.71859602  0.41602311     1.04600
Cu2556     Cu  0.76555569  0.78005842  0.41576061     1.04300
C2557       C  0.74985918  0.74882915  0.37619204     0.94600
C2558       C  0.75098612  0.75012014  0.45565627     0.93800
C2559       C  0.69040812  0.74882367  0.41605287     0.85900
C2560       C  0.81009948  0.74980322  0.41564212     0.92200
O2561       O  0.97114310  0.98581060  0.05328836    -0.71500
O2562       O  0.97145949  0.98505734  0.11378585    -0.72500
O2563       O  0.97190312  0.53070167  0.08366194    -0.61100
O2564       O  0.97122817  0.94003312  0.08322482    -0.69600
O2565       O  0.52891302  0.96848970  0.08332441    -0.69100
O2566       O  0.52958739  0.55916807  0.08316076    -0.60400
O2567       O  0.52986933  0.51459243  0.11360900    -0.72900
O2568       O  0.52958845  0.51365748  0.05322757    -0.71700
Cu2569     Cu  0.96923703  0.98427773  0.08352677     1.04600
Cu2570     Cu  0.53168462  0.51506664  0.08340177     1.04300
C2571       C  0.00008046  0.99987001  0.04370171     0.94600
C2572       C  0.00043901  0.99961873  0.12326393     0.93800
C2573       C  0.00076178  0.55933568  0.08331428     0.85900
C2574       C  0.00004718  0.93983620  0.08318255     0.92200
O2575       O  0.97197367  0.69024099  0.08389187    -0.71500
O2576       O  0.97165866  0.78034787  0.08376015    -0.72500
O2577       O  0.97120057  0.73481192  0.05369553    -0.61100
O2578       O  0.97252054  0.73582469  0.11408898    -0.69600
O2579       O  0.53037908  0.76314814  0.11361089    -0.69100
O2580       O  0.52894820  0.76436205  0.05332600    -0.60400
O2581       O  0.52934927  0.80901180  0.08390916    -0.72900
O2582       O  0.52964881  0.71882417  0.08285495    -0.71700
Cu2583     Cu  0.96982669  0.73430981  0.08389707     1.04600
Cu2584     Cu  0.53158296  0.76486384  0.08342442     1.04300
C2585       C  0.00082197  0.69015064  0.08323519     0.94600
C2586       C  0.00044916  0.80906500  0.08374027     0.93800
C2587       C  0.99993680  0.74953199  0.04392333     0.85900
C2588       C  0.50165368  0.74934409  0.12336928     0.92200
O2589       O  0.72013006  0.98405563  0.11350074    -0.71500
O2590       O  0.71913825  0.98365359  0.05305325    -0.72500
O2591       O  0.71981950  0.93870789  0.08327703    -0.61100
O2592       O  0.71912481  0.52878463  0.08327269    -0.69600
O2593       O  0.77678272  0.55726142  0.08234073    -0.69100
O2594       O  0.77751675  0.96726368  0.08354406    -0.60400
O2595       O  0.77665230  0.51120183  0.05253909    -0.72900
O2596       O  0.77737514  0.51296637  0.11296495    -0.71700
Cu2597     Cu  0.71765107  0.98280369  0.08328473     1.04600
Cu2598     Cu  0.77899822  0.51318757  0.08273831     1.04300
C2599       C  0.74913062  0.99896873  0.12293924     0.94600
C2600       C  0.74797934  0.99701954  0.04342685     0.93800
C2601       C  0.74868583  0.93860706  0.08346278     0.85900
C2602       C  0.74796783  0.55744726  0.08274505     0.92200
O2603       O  0.77782480  0.80785901  0.08276060    -0.71500
O2604       O  0.77737175  0.71728970  0.08245635    -0.72500
O2605       O  0.77754545  0.76271354  0.05244172    -0.61100
O2606       O  0.77781082  0.76263499  0.11270606    -0.69600
O2607       O  0.72011572  0.73403314  0.11285022    -0.69100
O2608       O  0.71975321  0.73474219  0.05253771    -0.60400
O2609       O  0.71969687  0.68897284  0.08241237    -0.72900
O2610       O  0.72012721  0.77938151  0.08305388    -0.71700
Cu2611     Cu  0.77964405  0.76358593  0.08257608     1.04600
Cu2612     Cu  0.71792813  0.73326904  0.08271341     1.04300
C2613       C  0.74898811  0.80800829  0.08304348     0.94600
C2614       C  0.74845340  0.68867507  0.08239497     0.93800
C2615       C  0.74864434  0.74888130  0.04292246     0.85900
C2616       C  0.74900197  0.74856183  0.12239379     0.92200
O2617       O  0.98505613  0.51246301  0.88654963    -0.71500
O2618       O  0.98471116  0.51293815  0.94688111    -0.72500
O2619       O  0.53006047  0.55733925  0.91643927    -0.61100
O2620       O  0.93970195  0.96718123  0.91674602    -0.69600
O2621       O  0.96858016  0.93840509  0.91746797    -0.69100
O2622       O  0.55900520  0.52860867  0.91611483    -0.60400
O2623       O  0.51443530  0.98465272  0.94719516    -0.72900
O2624       O  0.51355607  0.98241344  0.88679135    -0.71700
Cu2625     Cu  0.98380034  0.51355670  0.91667167     1.04600
Cu2626     Cu  0.51494943  0.98245952  0.91700168     1.04300
C2627       C  0.49917611  0.49760787  0.87705263     0.94600
C2628       C  0.49980074  0.49926785  0.95656040     0.93800
C2629       C  0.55895322  0.55734191  0.91599746     0.85900
C2630       C  0.93967163  0.93841511  0.91709978     0.92200
O2631       O  0.96912426  0.69016599  0.91726845    -0.71500
O2632       O  0.55950704  0.78032952  0.91747622    -0.72500
O2633       O  0.51453093  0.73487495  0.94757588    -0.61100
O2634       O  0.51424368  0.73569215  0.88716971    -0.69600
O2635       O  0.98549605  0.76461356  0.88757977    -0.69100
O2636       O  0.98467272  0.76297379  0.94788053    -0.60400
O2637       O  0.53038618  0.80887749  0.91808810    -0.72900
O2638       O  0.94010428  0.71882792  0.91737121    -0.71700
Cu2639     Cu  0.51537031  0.73425949  0.91736788     1.04600
Cu2640     Cu  0.98417992  0.76482840  0.91774979     1.04300
C2641       C  0.94018897  0.69012490  0.91718162     0.94600
C2642       C  0.55935707  0.80900418  0.91783902     0.93800
C2643       C  0.99956717  0.74877219  0.95717200     0.85900
C2644       C  0.99976196  0.75023549  0.87773600     0.92200
O2645       O  0.80883948  0.53100463  0.91637638    -0.71500
O2646       O  0.71922737  0.94022323  0.91623776    -0.72500
O2647       O  0.76473762  0.98631290  0.88617111    -0.61100
O2648       O  0.76411524  0.98466119  0.94663648    -0.69600
O2649       O  0.73508558  0.51476048  0.94667503    -0.69100
O2650       O  0.73357269  0.51458657  0.88627362    -0.60400
O2651       O  0.68989823  0.96854711  0.91716823    -0.72900
O2652       O  0.77993461  0.55977293  0.91615113    -0.71700
Cu2653     Cu  0.76539876  0.98448365  0.91638613     1.04600
Cu2654     Cu  0.73349882  0.51577182  0.91649239     1.04300
C2655       C  0.80884496  0.55974267  0.91623888     0.94600
C2656       C  0.69018529  0.93995194  0.91684806     0.93800
C2657       C  0.74886940  0.50115829  0.87653402     0.85900
C2658       C  0.74898826  0.49969453  0.95614696     0.92200
O2659       O  0.73431577  0.76214202  0.88591625    -0.71500
O2660       O  0.73344882  0.76219430  0.94621306    -0.72500
O2661       O  0.77923107  0.80762433  0.91620986    -0.61100
O2662       O  0.68915524  0.71698807  0.91584382    -0.69600
O2663       O  0.71854142  0.68870607  0.91633259    -0.69100
O2664       O  0.80841785  0.77914213  0.91614417    -0.60400
O2665       O  0.76352610  0.73445894  0.94642571    -0.72900
O2666       O  0.76328887  0.73342246  0.88612177    -0.71700
Cu2667     Cu  0.73304289  0.76325703  0.91604579     1.04600
Cu2668     Cu  0.76447643  0.73297882  0.91627240     1.04300
C2669       C  0.74846295  0.74732123  0.87640484     0.94600
C2670       C  0.74847023  0.74844622  0.95587188     0.93800
C2671       C  0.80824529  0.80780281  0.91626258     0.85900
C2672       C  0.68950435  0.68840147  0.91589434     0.92200
O2673       O  0.94004742  0.97054620  0.58459566    -0.71500
O2674       O  0.52973468  0.96918818  0.58387190    -0.72500
O2675       O  0.98515189  0.96949387  0.61435437    -0.61100
O2676       O  0.98491630  0.97053712  0.55397151    -0.69600
O2677       O  0.51610333  0.52819921  0.55449539    -0.69100
O2678       O  0.51355474  0.52570139  0.61471005    -0.60400
O2679       O  0.55971408  0.52583692  0.58483762    -0.72900
O2680       O  0.97018800  0.52778387  0.58431512    -0.71700
Cu2681     Cu  0.98393022  0.96793446  0.58418541     1.04600
Cu2682     Cu  0.51597332  0.52889198  0.58462359     1.04300
C2683       C  0.94132032  0.49918644  0.58462913     0.94600
C2684       C  0.55937644  0.49693407  0.58397669     0.93800
C2685       C  0.49941381  0.49654695  0.62382431     0.85900
C2686       C  0.50094207  0.49991310  0.54452407     0.92200
O2687       O  0.51549622  0.78017010  0.55289221    -0.71500
O2688       O  0.51508812  0.78249181  0.61341048    -0.72500
O2689       O  0.56064459  0.78104987  0.58352425    -0.61100
O2690       O  0.97053826  0.78182422  0.58253025    -0.69600
O2691       O  0.94160615  0.72433302  0.58468360    -0.69100
O2692       O  0.53186316  0.72366550  0.58323968    -0.60400
O2693       O  0.98836606  0.72494759  0.61403254    -0.72900
O2694       O  0.98520118  0.72278538  0.55368240    -0.71700
Cu2695     Cu  0.51650363  0.78340443  0.58307574     1.04600
Cu2696     Cu  0.98574154  0.72193705  0.58392891     1.04300
C2697       C  0.99998513  0.75110083  0.54366457     0.94600
C2698       C  0.00185272  0.75398858  0.62324047     0.93800
C2699       C  0.56069627  0.75231811  0.58337717     0.85900
C2700       C  0.94184744  0.75315742  0.58357827     0.92200
O2701       O  0.78088847  0.96925785  0.58407460    -0.71500
O2702       O  0.68952948  0.96784417  0.58356620    -0.72500
O2703       O  0.73543565  0.96761359  0.55341495    -0.61100
O2704       O  0.73560752  0.96936097  0.61400039    -0.69600
O2705       O  0.76385496  0.52648467  0.61338742    -0.69100
O2706       O  0.76348258  0.52464569  0.55304853    -0.60400
O2707       O  0.71857371  0.52469200  0.58311200    -0.72900
O2708       O  0.80971994  0.52652454  0.58331055    -0.71700
Cu2709     Cu  0.73434727  0.96647027  0.58377415     1.04600
Cu2710     Cu  0.76493659  0.52755896  0.58317949     1.04300
C2711       C  0.81034285  0.49810973  0.58393751     0.94600
C2712       C  0.69001207  0.49583942  0.58327519     0.93800
C2713       C  0.74964020  0.49570203  0.54370162     0.85900
C2714       C  0.75000468  0.49791941  0.62313628     0.92200
O2715       O  0.76586182  0.78117987  0.55255704    -0.71500
O2716       O  0.76603768  0.78119057  0.61303405    -0.72500
O2717       O  0.81166288  0.78177976  0.58243682    -0.61100
O2718       O  0.72074707  0.78094786  0.58299823    -0.69600
O2719       O  0.69233466  0.72355797  0.58326569    -0.69100
O2720       O  0.78324904  0.72416110  0.58282774    -0.60400
O2721       O  0.73830035  0.72356497  0.61298062    -0.72900
O2722       O  0.73750816  0.72376637  0.55283551    -0.71700
Cu2723     Cu  0.76709471  0.78330829  0.58275954     1.04600
Cu2724     Cu  0.73684588  0.72177967  0.58295202     1.04300
C2725       C  0.75158464  0.75233551  0.54308011     0.94600
C2726       C  0.75222942  0.75230065  0.62248717     0.93800
C2727       C  0.81176975  0.75309680  0.58264440     0.85900
C2728       C  0.69204960  0.75218264  0.58325525     0.92200
O2729       O  0.96658365  0.93856675  0.75062968    -0.71500
O2730       O  0.55808601  0.52806629  0.74995408    -0.72500
O2731       O  0.51260796  0.98324599  0.78037398    -0.61100
O2732       O  0.51114073  0.98335120  0.72025981    -0.69600
O2733       O  0.98303604  0.51090335  0.72016756    -0.69100
O2734       O  0.98506572  0.51309815  0.78059095    -0.60400
O2735       O  0.52928776  0.55697442  0.74960711    -0.72900
O2736       O  0.93766418  0.96732441  0.75126382    -0.71700
Cu2737     Cu  0.51284557  0.98237718  0.75028511     1.04600
Cu2738     Cu  0.98295563  0.51296804  0.75037230     1.04300
C2739       C  0.93769200  0.93856246  0.75106480     0.94600
C2740       C  0.55813264  0.55683583  0.74954670     0.93800
C2741       C  0.99940784  0.49846396  0.79007537     0.85900
C2742       C  0.99755011  0.49643636  0.71063937     0.92200
O2743       O  0.51106802  0.73495355  0.78033587    -0.71500
O2744       O  0.51280862  0.73733264  0.72004819    -0.72500
O2745       O  0.55698798  0.78106164  0.75087196    -0.61100
O2746       O  0.96658691  0.69107086  0.74953777    -0.69600
O2747       O  0.93757774  0.71973765  0.74975447    -0.69100
O2748       O  0.52812010  0.80985746  0.75106493    -0.60400
O2749       O  0.98388698  0.76609570  0.72009746    -0.72900
O2750       O  0.98215052  0.76370223  0.78066031    -0.71700
Cu2751     Cu  0.51281176  0.73509640  0.75018668     1.04600
Cu2752     Cu  0.98188099  0.76582122  0.75040243     1.04300
C2753       C  0.99665318  0.74921203  0.79014336     0.94600
C2754       C  0.99881327  0.75216041  0.71043461     0.93800
C2755       C  0.55700228  0.80982038  0.75119240     0.85900
C2756       C  0.93765060  0.69102013  0.74945389     0.92200
O2757       O  0.71750997  0.94004172  0.75097968    -0.71500
O2758       O  0.80743202  0.53130241  0.74940597    -0.72500
O2759       O  0.76389281  0.98612347  0.78056030    -0.61100
O2760       O  0.76248123  0.98431416  0.72017161    -0.69600
O2761       O  0.73303380  0.51349982  0.71961793    -0.69100
O2762       O  0.73267960  0.51453545  0.78013005    -0.60400
O2763       O  0.77789850  0.55945510  0.74961483    -0.72900
O2764       O  0.68857895  0.96876455  0.75022659    -0.71700
Cu2765     Cu  0.76399499  0.98412586  0.75037435     1.04600
Cu2766     Cu  0.73186738  0.51508188  0.74986872     1.04300
C2767       C  0.68858300  0.94004458  0.75078418     0.94600
C2768       C  0.80700664  0.55984410  0.74934815     0.93800
C2769       C  0.74836381  0.50145409  0.78978500     0.85900
C2770       C  0.74747811  0.49882340  0.71022476     0.92200
O2771       O  0.76218876  0.73170445  0.77929234    -0.71500
O2772       O  0.76412594  0.73415408  0.71896910    -0.72500
O2773       O  0.80801610  0.77850308  0.74981869    -0.61100
O2774       O  0.71829983  0.68747114  0.74850783    -0.69600
O2775       O  0.68880528  0.71568636  0.74861559    -0.69100
O2776       O  0.77830331  0.80646424  0.75003549    -0.60400
O2777       O  0.73457670  0.76229333  0.71918961    -0.72900
O2778       O  0.73249077  0.75969454  0.77944810    -0.71700
Cu2779     Cu  0.76420501  0.73198418  0.74913233     1.04600
Cu2780     Cu  0.73252352  0.76198555  0.74932436     1.04300
C2781       C  0.74697834  0.74528039  0.78898918     0.94600
C2782       C  0.74966603  0.74863418  0.70945865     0.93800
C2783       C  0.80745963  0.80699273  0.75014848     0.85900
C2784       C  0.68922967  0.68715262  0.74841307     0.92200
C2785       C  0.90376732  0.62598599  0.74589322     0.25000
C2786       C  0.90414206  0.65753004  0.74909710    -0.23100
C2787       C  0.87210419  0.65659989  0.75211948     0.19900
C2788       C  0.84068982  0.62504421  0.75210756     0.24900
C2789       C  0.84035642  0.59348298  0.74905895    -0.23100
C2790       C  0.87237008  0.59445030  0.74587352     0.19800
F2791       F  0.87352983  0.56488521  0.74257114    -0.13000
F2792       F  0.93380327  0.62540772  0.74260477    -0.15400
F2793       F  0.81064033  0.62558800  0.75541689    -0.15400
F2794       F  0.87096708  0.68617702  0.75541826    -0.13000
C2795       C  0.59121670  0.87516992  0.75093344     0.25000
C2796       C  0.59063083  0.84317139  0.75156442    -0.23100
C2797       C  0.62264554  0.84346376  0.75234273     0.19900
C2798       C  0.65428168  0.87474875  0.75215558     0.24900
C2799       C  0.65489514  0.90673259  0.75122031    -0.23100
C2800       C  0.62285676  0.90646077  0.75074328     0.19800
F2801       F  0.62183605  0.93648495  0.75000209    -0.13000
F2802       F  0.56117804  0.87645942  0.75038210    -0.15400
F2803       F  0.68430683  0.87346565  0.75287191    -0.15400
F2804       F  0.62363579  0.81344259  0.75329257    -0.13000
C2805       C  0.90403618  0.87345330  0.75391879     0.25000
C2806       C  0.90422968  0.90502101  0.75120876    -0.23100
C2807       C  0.87213679  0.90399598  0.74839127     0.19900
C2808       C  0.84083262  0.87231849  0.74809421     0.24900
C2809       C  0.84069894  0.84073578  0.75063625    -0.23100
C2810       C  0.87277518  0.84181510  0.75361279     0.19800
F2811       F  0.87414316  0.81224589  0.75640205    -0.13000
F2812       F  0.93412448  0.87294893  0.75704884    -0.15400
F2813       F  0.81070568  0.87276892  0.74500714    -0.15400
F2814       F  0.87084327  0.93360526  0.74559911    -0.13000
C2815       C  0.62337756  0.59102150  0.75340254     0.25000
C2816       C  0.59175008  0.59010855  0.74899423    -0.23100
C2817       C  0.59267029  0.62138234  0.74403155     0.19900
C2818       C  0.62426439  0.65269915  0.74364223     0.24900
C2819       C  0.65584104  0.65366784  0.74825111    -0.23100
C2820       C  0.65498385  0.62236030  0.75302492     0.19800
F2821       F  0.68464157  0.62196079  0.75778263    -0.13000
F2822       F  0.62385796  0.56167286  0.75850653    -0.15400
F2823       F  0.62380232  0.68203286  0.73847002    -0.15400
F2824       F  0.56303823  0.62181890  0.73925856    -0.13000
C2825       C  0.76338033  0.73176381  0.65498642     0.25000
C2826       C  0.75216123  0.75189972  0.64459238    -0.23100
C2827       C  0.73994914  0.77080236  0.65542140     0.19900
C2828       C  0.73878732  0.76951948  0.67646474     0.24900
C2829       C  0.75044407  0.74967011  0.68709036    -0.23100
C2830       C  0.76283551  0.73083335  0.67603374     0.19800
F2831       F  0.77419088  0.71119342  0.68547669    -0.13000
F2832       F  0.77550703  0.71345728  0.64472242    -0.15400
F2833       F  0.72617197  0.78774569  0.68633428    -0.15400
F2834       F  0.72802028  0.78961297  0.64556932    -0.13000
C2835       C  0.73570701  0.51641891  0.65549093     0.25000
C2836       C  0.74959481  0.49841735  0.64525354    -0.23100
C2837       C  0.76288282  0.98101948  0.65617559     0.19900
C2838       C  0.76297504  0.98135854  0.67725162     0.24900
C2839       C  0.74798333  0.49853975  0.68780687    -0.23100
C2840       C  0.73457971  0.51626994  0.67656021     0.19800
F2841       F  0.72033556  0.53354035  0.68583850    -0.13000
F2842       F  0.72233819  0.53339263  0.64503810    -0.15400
F2843       F  0.77672374  0.96412331  0.68704542    -0.15400
F2844       F  0.77658713  0.96379288  0.64626540    -0.13000
C2845       C  0.88164925  0.73179555  0.59662118     0.25000
C2846       C  0.90870695  0.75336170  0.58341633    -0.23100
C2847       C  0.90382005  0.77504246  0.56999375     0.19900
C2848       C  0.87219843  0.77503234  0.56973653     0.24900
C2849       C  0.84509825  0.75331553  0.58287927    -0.23100
C2850       C  0.85003408  0.73174638  0.59633497     0.19800
F2851       F  0.82459080  0.71142606  0.60962646    -0.13000
F2852       F  0.88624021  0.71159059  0.61022061    -0.15400
F2853       F  0.86760475  0.79532574  0.55620034    -0.15400
F2854       F  0.92924176  0.79534557  0.55668043    -0.13000
C2855       C  0.65781852  0.78349972  0.58486051     0.25000
C2856       C  0.65840057  0.75212717  0.58348196    -0.23100
C2857       C  0.62643705  0.72078810  0.58222297     0.19900
C2858       C  0.59484862  0.72083997  0.58215331     0.24900
C2859       C  0.59428206  0.75223244  0.58341546    -0.23100
C2860       C  0.62624916  0.78355187  0.58480176     0.19800
F2861       F  0.62724965  0.81452337  0.58619068    -0.13000
F2862       F  0.68780298  0.81442466  0.58638837    -0.15400
F2863       F  0.56484229  0.68991972  0.58072867    -0.15400
F2864       F  0.62548011  0.68982851  0.58094190    -0.13000
C2865       C  0.51178831  0.73343163  0.65616049     0.25000
C2866       C  0.00195544  0.75438203  0.64542738    -0.23100
C2867       C  0.99134288  0.77488739  0.65602710     0.19900
C2868       C  0.99009950  0.77411538  0.67711505     0.24900
C2869       C  0.99998864  0.75311357  0.68802582    -0.23100
C2870       C  0.51110504  0.73296024  0.67721774     0.19800
F2871       F  0.52102749  0.71238701  0.68692678    -0.13000
F2872       F  0.52270540  0.71381134  0.64622190    -0.15400
F2873       F  0.97922584  0.79401082  0.68675855    -0.15400
F2874       F  0.98101981  0.79480003  0.64592170    -0.13000
C2875       C  0.90539629  0.52621815  0.57524968     0.25000
C2876       C  0.90813571  0.49950214  0.58490159    -0.23100
C2877       C  0.87764341  0.97284611  0.59419318     0.19900
C2878       C  0.84591796  0.97255312  0.59406432     0.24900
C2879       C  0.84407222  0.49887846  0.58448249    -0.23100
C2880       C  0.87363539  0.52589449  0.57502824     0.19800
F2881       F  0.87156567  0.55143591  0.56499140    -0.13000
F2882       F  0.93314934  0.55206706  0.56542909    -0.15400
F2883       F  0.81833910  0.94692104  0.60412252    -0.15400
F2884       F  0.87983165  0.94746543  0.60434843    -0.13000
C2885       C  0.62450722  0.52727176  0.58056817     0.25000
C2886       C  0.59267994  0.49644235  0.58371554    -0.23100
C2887       C  0.59264904  0.96654013  0.58844628     0.19900
C2888       C  0.62407382  0.96614628  0.58811763     0.24900
C2889       C  0.65642966  0.49580873  0.58328226    -0.23100
C2890       C  0.65590702  0.52697540  0.58036358     0.19800
F2891       F  0.68578463  0.55744610  0.57711403    -0.13000
F2892       F  0.62547123  0.55792749  0.57740164    -0.15400
F2893       F  0.62358046  0.93619685  0.59290708    -0.15400
F2894       F  0.56302991  0.93692450  0.59352627    -0.13000
C2895       C  0.51776608  0.48417639  0.65660717     0.25000
C2896       C  0.99840927  0.49585709  0.64584052    -0.23100
C2897       C  0.97712285  0.00858381  0.65629270     0.19900
C2898       C  0.97631836  0.00823074  0.67736584     0.24900
C2899       C  0.99748811  0.49590689  0.68828262    -0.23100
C2900       C  0.51759458  0.48442012  0.67765106     0.19800
F2901       F  0.53761098  0.47390320  0.68751177    -0.13000
F2902       F  0.53759540  0.47339901  0.64670298    -0.15400
F2903       F  0.95520520  0.01780483  0.68688839    -0.15400
F2904       F  0.95709664  0.01858240  0.64596583    -0.13000
C2905       C  0.76648616  0.73352897  0.82218958     0.25000
C2906       C  0.74642138  0.74464469  0.81135972    -0.23100
C2907       C  0.72618583  0.75562600  0.82219054     0.19900
C2908       C  0.72673466  0.75636078  0.84323472     0.24900
C2909       C  0.74748256  0.74606571  0.85405114    -0.23100
C2910       C  0.76701509  0.73424107  0.84323499     0.19800
F2911       F  0.78713411  0.72367272  0.85293294    -0.13000
F2912       F  0.78613348  0.72231536  0.81250346    -0.15400
F2913       F  0.70654560  0.76690876  0.85293833    -0.15400
F2914       F  0.70550045  0.76550620  0.81250322    -0.13000
C2915       C  0.77988663  0.01045829  0.82278711     0.25000
C2916       C  0.74864456  0.50202637  0.81194862    -0.23100
C2917       C  0.71759461  0.49154979  0.82272669     0.19900
C2918       C  0.71769357  0.49137411  0.84380405     0.24900
C2919       C  0.74884387  0.50164529  0.85436251    -0.23100
C2920       C  0.78001224  0.01045617  0.84386283     0.19800
F2921       F  0.81064659  0.02179778  0.85376274    -0.13000
F2922       F  0.81039684  0.02173103  0.81267951    -0.15400
F2923       F  0.68716938  0.48000530  0.85390934    -0.15400
F2924       F  0.68697270  0.48026455  0.81282310    -0.13000
C2925       C  0.90607873  0.62479249  0.91787491     0.25000
C2926       C  0.90661980  0.65673508  0.91680975    -0.23100
C2927       C  0.87462145  0.65636299  0.91530280     0.19900
C2928       C  0.84305340  0.62502782  0.91500766     0.24900
C2929       C  0.84248202  0.59309053  0.91624953    -0.23100
C2930       C  0.87450128  0.59344798  0.91758458     0.19800
F2931       F  0.87553925  0.56346500  0.91871784    -0.13000
F2932       F  0.93610574  0.62360688  0.91931554    -0.15400
F2933       F  0.81305223  0.62621984  0.91340552    -0.15400
F2934       F  0.87359679  0.68633621  0.91400482    -0.13000
C2935       C  0.59309333  0.87433963  0.91805449     0.25000
C2936       C  0.59285362  0.84249796  0.91785860    -0.23100
C2937       C  0.62505272  0.84311359  0.91753011     0.19900
C2938       C  0.65650128  0.87459256  0.91723344     0.24900
C2939       C  0.65672991  0.90642697  0.91724862    -0.23100
C2940       C  0.62453022  0.90580724  0.91774544     0.19800
F2941       F  0.62315759  0.93566235  0.91790815    -0.13000
F2942       F  0.56288588  0.87532236  0.91850158    -0.15400
F2943       F  0.68672572  0.87364021  0.91693622    -0.15400
F2944       F  0.62639994  0.81324715  0.91746233    -0.13000
C2945       C  0.48522150  0.76794838  0.84472242     0.25000
C2946       C  0.99922557  0.75019945  0.85532501    -0.23100
C2947       C  0.01233495  0.73210264  0.84422594     0.19900
C2948       C  0.01129124  0.73160461  0.82317092     0.24900
C2949       C  0.99717602  0.74925633  0.81256338    -0.23100
C2950       C  0.48418900  0.76746144  0.82366391     0.19800
F2951       F  0.47063853  0.78520031  0.81423125    -0.13000
F2952       F  0.47258900  0.78612068  0.85464240    -0.15400
F2953       F  0.02413028  0.71360512  0.81326139    -0.15400
F2954       F  0.02613392  0.71458083  0.85365356    -0.13000
C2955       C  0.87396619  0.90458621  0.91568125     0.25000
C2956       C  0.90601768  0.90500186  0.91698916    -0.23100
C2957       C  0.90546377  0.87304730  0.91806775     0.19900
C2958       C  0.87388451  0.84168770  0.91785933     0.24900
C2959       C  0.84183492  0.84126376  0.91651634    -0.23100
C2960       C  0.84237154  0.87320951  0.91547001     0.19800
F2961       F  0.81231872  0.87436235  0.91414835    -0.13000
F2962       F  0.87291908  0.93455698  0.91448488    -0.15400
F2963       F  0.87495629  0.81172953  0.91908040    -0.15400
F2964       F  0.93549652  0.87184957  0.91936162    -0.13000
C2965       C  0.59256010  0.62260562  0.91579471     0.25000
C2966       C  0.59241714  0.59081375  0.91540778    -0.23100
C2967       C  0.62462712  0.59151441  0.91448741     0.19900
C2968       C  0.65603297  0.62305888  0.91449086     0.24900
C2969       C  0.65614763  0.65482639  0.91542024    -0.23100
C2970       C  0.62392022  0.65410238  0.91581430     0.19800
F2971       F  0.62244443  0.68389256  0.91629548    -0.13000
F2972       F  0.56232005  0.62352167  0.91621470    -0.15400
F2973       F  0.68630602  0.62224937  0.91351328    -0.15400
F2974       F  0.62600906  0.56169419  0.91354081    -0.13000
C2975       C  0.00036029  0.02561307  0.82333054     0.25000
C2976       C  0.99976416  0.49852123  0.81230912    -0.23100
C2977       C  0.49912205  0.47079090  0.82291423     0.19900
C2978       C  0.49907053  0.47053442  0.84396421     0.24900
C2979       C  0.99963910  0.49799590  0.85481334    -0.23100
C2980       C  0.00061742  0.02540160  0.84437283     0.19800
F2981       F  0.00238596  0.05286422  0.85441776    -0.13000
F2982       F  0.00188954  0.05325365  0.81364230    -0.15400
F2983       F  0.49741762  0.44288149  0.85370646    -0.15400
F2984       F  0.49748271  0.44334484  0.81291793    -0.13000
C2985       C  0.72065676  0.74792017  0.98887242     0.25000
C2986       C  0.74854391  0.74880879  0.97811427    -0.23100
C2987       C  0.77658953  0.75010197  0.98881059     0.19900
C2988       C  0.77678268  0.75051248  0.00985560     0.24900
C2989       C  0.74867680  0.74912735  0.02065044    -0.23100
C2990       C  0.72060848  0.74785290  0.00993845     0.19800
F2991       F  0.69332314  0.74713768  0.01982049    -0.13000
F2992       F  0.69300884  0.74634211  0.97901888    -0.15400
F2993       F  0.80424718  0.75158289  0.01964252    -0.15400
F2994       F  0.80424408  0.75165481  0.97890318    -0.13000
C2995       C  0.71774579  0.87360278  0.08014463     0.25000
C2996       C  0.74874874  0.90517902  0.08352226    -0.23100
C2997       C  0.77984239  0.90440498  0.08687382     0.19900
C2998       C  0.77991680  0.87297466  0.08680915     0.24900
C2999       C  0.74893408  0.84142740  0.08332676    -0.23100
C3000       C  0.71782379  0.84219405  0.08007932     0.19800
F3001       F  0.68728320  0.81257128  0.07654398    -0.13000
F3002       F  0.68717026  0.87290498  0.07657509    -0.15400
F3003       F  0.81045039  0.87360781  0.09043005    -0.15400
F3004       F  0.81036687  0.93403480  0.09042996    -0.13000
C3005       C  0.77956019  0.65421195  0.08016516     0.25000
C3006       C  0.74827370  0.65506780  0.08236872    -0.23100
C3007       C  0.71684221  0.62338668  0.08465151     0.19900
C3008       C  0.71672217  0.59184272  0.08475471     0.24900
C3009       C  0.74803159  0.59100040  0.08259335    -0.23100
C3010       C  0.77944757  0.62268445  0.08028919     0.19800
F3011       F  0.81034465  0.62342800  0.07802676    -0.13000
F3012       F  0.81054492  0.68389482  0.07774055    -0.15400
F3013       F  0.68573399  0.56215266  0.08715985    -0.15400
F3014       F  0.68597951  0.62268488  0.08701083    -0.13000
C3015       C  0.73633824  0.51803895  0.98960938     0.25000
C3016       C  0.74841783  0.49888176  0.97856903    -0.23100
C3017       C  0.75990813  0.97776438  0.98957397     0.19900
C3018       C  0.75954235  0.97742189  0.01066075     0.24900
C3019       C  0.74777726  0.99684189  0.02134280    -0.23100
C3020       C  0.73560695  0.51706603  0.01067782     0.19800
F3021       F  0.72423098  0.53600916  0.02094061    -0.13000
F3022       F  0.72557003  0.53812431  0.98012739    -0.15400
F3023       F  0.77002740  0.95756490  0.02068959    -0.15400
F3024       F  0.77060618  0.95784063  0.97979178    -0.13000
C3025       C  0.47026114  0.72447383  0.01093695     0.25000
C3026       C  0.99971781  0.74933055  0.02161308    -0.23100
C3027       C  0.02914285  0.77385418  0.01070021     0.19900
C3028       C  0.02907479  0.77341707  0.98964937     0.24900
C3029       C  0.99968696  0.74869517  0.97919820    -0.23100
C3030       C  0.47029787  0.72427533  0.98986885     0.19800
F3031       F  0.44180063  0.69999733  0.97984573    -0.13000
F3032       F  0.44167012  0.69990071  0.02082161    -0.15400
F3033       F  0.05752916  0.79746065  0.97941768    -0.15400
F3034       F  0.05777118  0.79873461  0.02033606    -0.13000
C3035       C  0.53116070  0.90552339  0.07978620     0.25000
C3036       C  0.00003020  0.90631138  0.08302721    -0.23100
C3037       C  0.96892958  0.87465644  0.08617214     0.19900
C3038       C  0.96904867  0.84322858  0.08636289     0.24900
C3039       C  0.00027753  0.84249412  0.08341914    -0.23100
C3040       C  0.53128118  0.87409920  0.07998069     0.19800
F3041       F  0.56189964  0.87479511  0.07649496    -0.13000
F3042       F  0.56168705  0.93514606  0.07614776    -0.15400
F3043       F  0.93840546  0.81354975  0.08965949    -0.15400
F3044       F  0.93819765  0.87389555  0.08932525    -0.13000
C3045       C  0.53213826  0.65597918  0.08546041     0.25000
C3046       C  0.00085397  0.65670727  0.08296859    -0.23100
C3047       C  0.96959825  0.62505361  0.08028428     0.19900
C3048       C  0.96956743  0.59357410  0.08035011     0.24900
C3049       C  0.00080510  0.59282324  0.08307558    -0.23100
C3050       C  0.53210898  0.62451043  0.08553190     0.19800
F3051       F  0.56291821  0.62528254  0.08826267    -0.13000
F3052       F  0.56298321  0.68570617  0.08809082    -0.15400
F3053       F  0.93877670  0.56386649  0.07752407    -0.15400
F3054       F  0.93885858  0.62434138  0.07734699    -0.13000
C3055       C  0.52693227  0.49815880  0.01063074     0.25000
C3056       C  0.00023118  0.00023632  0.02146043    -0.23100
C3057       C  0.97400449  0.00248512  0.01076811     0.19900
C3058       C  0.97405758  0.00255946  0.98969763     0.24900
C3059       C  0.00030828  0.50003070  0.97888362    -0.23100
C3060       C  0.52665732  0.49786211  0.98956369     0.19800
F3061       F  0.55259098  0.49602380  0.97964727    -0.13000
F3062       F  0.55255873  0.49568561  0.02041638    -0.15400
F3063       F  0.94821847  0.00464242  0.97990435    -0.15400
F3064       F  0.94866853  0.00535657  0.02070503    -0.13000
C3065       C  0.73068543  0.72011257  0.48911401     0.25000
C3066       C  0.75132095  0.75066492  0.47801819    -0.23100
C3067       C  0.77210882  0.78182476  0.48856187     0.19900
C3068       C  0.77210196  0.78243107  0.50961769     0.24900
C3069       C  0.75139665  0.75187502  0.52071163    -0.23100
C3070       C  0.73067832  0.72071558  0.51015791     0.19800
F3071       F  0.70987597  0.69064445  0.52012327    -0.13000
F3072       F  0.70998240  0.68949347  0.47967936    -0.15400
F3073       F  0.79286013  0.81302934  0.51906104    -0.15400
F3074       F  0.79298822  0.81185476  0.47857474    -0.13000
C3075       C  0.74090171  0.51875398  0.51134520     0.25000
C3076       C  0.74855224  0.49558328  0.52149369    -0.23100
C3077       C  0.75531938  0.97356115  0.51033270     0.19900
C3078       C  0.75531861  0.97433411  0.48922568     0.24900
C3079       C  0.74846773  0.49753621  0.47903192    -0.23100
C3080       C  0.74088680  0.51974178  0.49030147     0.19800
F3081       F  0.73259438  0.54181995  0.48091361    -0.13000
F3082       F  0.73255949  0.53987183  0.52184022    -0.15400
F3083       F  0.76380957  0.95325070  0.47881255    -0.15400
F3084       F  0.76380007  0.95175185  0.51988150    -0.13000
C3085       C  0.99020150  0.71941387  0.51072806     0.25000
C3086       C  0.99914485  0.75026392  0.52127862    -0.23100
C3087       C  0.50729812  0.78037860  0.51017011     0.19900
C3088       C  0.50700317  0.77981204  0.48911302     0.24900
C3089       C  0.99862530  0.74912649  0.47853430    -0.23100
C3090       C  0.98995687  0.71885385  0.48963608     0.19800
F3091       F  0.98181197  0.68867573  0.48015679    -0.13000
F3092       F  0.98229509  0.68974902  0.52075766    -0.15400
F3093       F  0.51447212  0.80941078  0.47914281    -0.15400
F3094       F  0.51507905  0.81048550  0.51962306    -0.13000
C3095       C  0.87338827  0.77767597  0.42436733     0.25000
C3096       C  0.84358185  0.75003203  0.41555643    -0.23100
C3097       C  0.84605215  0.72254611  0.40673306     0.19900
C3098       C  0.87763926  0.72256907  0.40685352     0.24900
C3099       C  0.90738113  0.75008484  0.41579169    -0.23100
C3100       C  0.90498921  0.77770542  0.42448029     0.19800
F3101       F  0.93297499  0.80431372  0.43362480    -0.13000
F3102       F  0.87176666  0.80425470  0.43341764    -0.15400
F3103       F  0.87929203  0.69605044  0.39774142    -0.15400
F3104       F  0.81811882  0.69601848  0.39750141    -0.13000
C3105       C  0.62412684  0.77900854  0.41137999     0.25000
C3106       C  0.59270419  0.74858916  0.41606562    -0.23100
C3107       C  0.59369220  0.71811480  0.42057445     0.19900
C3108       C  0.62531718  0.71814656  0.42054886     0.24900
C3109       C  0.65678128  0.74866178  0.41601469    -0.23100
C3110       C  0.65572906  0.77906241  0.41138755     0.19800
F3111       F  0.68522845  0.80895887  0.40653844    -0.13000
F3112       F  0.62442224  0.80880120  0.40642382    -0.15400
F3113       F  0.62500296  0.68827313  0.42531100    -0.15400
F3114       F  0.56413883  0.68823309  0.42537359    -0.13000
C3115       C  0.52444761  0.53134406  0.51171793     0.25000
C3116       C  0.50112213  0.50088772  0.52218662    -0.23100
C3117       C  0.97891102  0.96979354  0.51105797     0.19900
C3118       C  0.97912743  0.97044236  0.49000000     0.24900
C3119       C  0.50132079  0.50269295  0.47954498    -0.23100
C3120       C  0.52449984  0.53224671  0.49066333     0.19800
F3121       F  0.54786947  0.56196064  0.48121646    -0.13000
F3122       F  0.54781224  0.56024032  0.52177915    -0.15400
F3123       F  0.95726867  0.94080929  0.48000632    -0.15400
F3124       F  0.95685579  0.93956275  0.52051547    -0.13000
C3125       C  0.87718724  0.97281930  0.41169376     0.29800
C3126       C  0.90908363  0.50405298  0.41714281    -0.23100
C3127       C  0.90765165  0.53393978  0.42260209     0.19900
C3128       C  0.87592714  0.53369470  0.42264728     0.24900
C3129       C  0.84479611  0.50357209  0.41716469    -0.23100
C3130       C  0.84544730  0.97254303  0.41165584     0.19800
F3131       F  0.81635717  0.94314260  0.40576392    -0.13000
F3132       F  0.87746201  0.94368200  0.40581727    -0.15400
F3133       F  0.87580461  0.56295572  0.42842091    -0.15400
F3134       F  0.93685353  0.56339536  0.42831144    -0.13000
C3135       C  0.65456775  0.52726341  0.42949172     0.25000
C3136       C  0.65862383  0.50353218  0.41737569    -0.23100
C3137       C  0.63016220  0.97955657  0.40435894     0.19900
C3138       C  0.59868581  0.97984289  0.40443842     0.24900
C3139       C  0.59505096  0.50378685  0.41760202    -0.23100
C3140       C  0.62300214  0.52737638  0.42961102     0.19800
F3141       F  0.61937948  0.54979100  0.44194143    -0.13000
F3142       F  0.68080386  0.54961778  0.44169112    -0.15400
F3143       F  0.57274106  0.95823031  0.39183976    -0.15400
F3144       F  0.63402715  0.95770910  0.39167310    -0.13000
C3145       C  0.78031243  0.76962382  0.15543661     0.25000
C3146       C  0.74909146  0.74931646  0.14475223    -0.23100
C3147       C  0.71788713  0.73007713  0.15570547     0.19900
C3148       C  0.71796293  0.73075778  0.17674367     0.24900
C3149       C  0.74926273  0.75064636  0.18743772    -0.23100
C3150       C  0.78039149  0.77028301  0.17648362     0.19800
F3151       F  0.81108533  0.79061056  0.18605039    -0.13000
F3152       F  0.81094603  0.78936211  0.14559969    -0.15400
F3153       F  0.68720347  0.71151840  0.18655798    -0.15400
F3154       F  0.68707425  0.71020012  0.14615021    -0.13000
C3155       C  0.77573615  0.77763842  0.32217176     0.25000
C3156       C  0.74924342  0.74975739  0.31143167    -0.23100
C3157       C  0.72293087  0.72144550  0.32210011     0.19900
C3158       C  0.72331118  0.72088902  0.34315406     0.24900
C3159       C  0.74974044  0.74889844  0.35392847    -0.23100
C3160       C  0.77593567  0.77728287  0.34320372     0.19800
F3161       F  0.80218347  0.80454618  0.35303648    -0.13000
F3162       F  0.80109229  0.80568637  0.31232304    -0.15400
F3163       F  0.69742013  0.69319008  0.35296087    -0.15400
F3164       F  0.69718070  0.69392773  0.31215358    -0.13000
C3165       C  0.78169988  0.87544146  0.25059637     0.25000
C3166       C  0.74989835  0.84377360  0.24988740    -0.23100
C3167       C  0.71855669  0.84478417  0.24937363     0.19900
C3168       C  0.71898965  0.87646372  0.24956275     0.24900
C3169       C  0.75079269  0.90813425  0.25026437    -0.23100
C3170       C  0.78213359  0.90711704  0.25077807     0.19800
F3171       F  0.81349055  0.93677427  0.25152364    -0.13000
F3172       F  0.81270178  0.87605133  0.25119158    -0.15400
F3173       F  0.68799073  0.87585770  0.24898405    -0.15400
F3174       F  0.68720668  0.81511794  0.24862511    -0.13000
C3175       C  0.71967129  0.59469954  0.24848174     0.25000
C3176       C  0.75146471  0.59456889  0.24964631    -0.23100
C3177       C  0.78271497  0.62660809  0.25082722     0.19900
C3178       C  0.78220436  0.65781996  0.25083213     0.24900
C3179       C  0.75041224  0.65795385  0.24960638    -0.23100
C3180       C  0.71916020  0.62590440  0.24847500     0.19800
F3181       F  0.68780962  0.62447251  0.24729292    -0.13000
F3182       F  0.68877171  0.56461176  0.24724906    -0.15400
F3183       F  0.81309062  0.68790063  0.25216460    -0.15400
F3184       F  0.81404226  0.62800922  0.25212066    -0.13000
C3185       C  0.78037625  0.02281491  0.17697728     0.25000
C3186       C  0.75021191  0.00041387  0.18806001    -0.23100
C3187       C  0.71908773  0.47831179  0.17749872     0.19900
C3188       C  0.71857551  0.47783284  0.15640844     0.24900
C3189       C  0.74949237  0.99948104  0.14532864    -0.23100
C3190       C  0.78002411  0.02234869  0.15590475     0.19800
F3191       F  0.80959745  0.04483922  0.14591647    -0.13000
F3192       F  0.81025645  0.04576597  0.18646262    -0.15400
F3193       F  0.68801713  0.45644482  0.14699804    -0.15400
F3194       F  0.68898020  0.45742600  0.18753519    -0.13000
C3195       C  0.78551607  0.52288340  0.32351352     0.25000
C3196       C  0.75237802  0.00332378  0.31259780    -0.23100
C3197       C  0.72073874  0.98821572  0.32352861     0.19900
C3198       C  0.72085603  0.98891001  0.34457757     0.24900
C3199       C  0.75371889  0.50774144  0.35526972    -0.23100
C3200       C  0.78533494  0.52418516  0.34462034     0.19800
F3201       F  0.81609632  0.54038567  0.35469979    -0.13000
F3202       F  0.81672532  0.53834874  0.31380918    -0.15400
F3203       F  0.69002242  0.97424436  0.35467931    -0.15400
F3204       F  0.68948701  0.97263588  0.31396007    -0.13000
C3205       C  0.52612328  0.74267122  0.17712916     0.25000
C3206       C  0.00362710  0.75059991  0.18797940    -0.23100
C3207       C  0.98017873  0.75749688  0.17746571     0.19900
C3208       C  0.97943480  0.75685279  0.15642835     0.24900
C3209       C  0.00212799  0.74930099  0.14555234    -0.23100
C3210       C  0.52537369  0.74202490  0.15603678     0.19800
F3211       F  0.54653827  0.73322237  0.14586803    -0.13000
F3212       F  0.54794018  0.73441081  0.18695013    -0.15400
F3213       F  0.95732132  0.76475581  0.14665740    -0.15400
F3214       F  0.95868707  0.76592072  0.18757701    -0.13000
C3215       C  0.47259772  0.74677018  0.32265945     0.25000
C3216       C  0.00266443  0.75227470  0.31206353    -0.23100
C3217       C  0.03196262  0.75705300  0.32310338     0.19900
C3218       C  0.03114256  0.75631811  0.34417380     0.24900
C3219       C  0.00111083  0.75062040  0.35453291    -0.23100
C3220       C  0.47188151  0.74589114  0.34373282     0.19800
F3221       F  0.44281738  0.74090386  0.35363501    -0.13000
F3222       F  0.44404876  0.74282596  0.31269547    -0.15400
F3223       F  0.05952608  0.76069351  0.35451694    -0.15400
F3224       F  0.06116784  0.76165245  0.31356689    -0.13000
C3225       C  0.97439121  0.87824584  0.25438511     0.25000
C3226       C  0.00509386  0.90982533  0.25043364    -0.23100
C3227       C  0.53599751  0.90906279  0.24620507     0.19900
C3228       C  0.53607646  0.87756565  0.24586918     0.24900
C3229       C  0.00526673  0.84598315  0.24975764    -0.23100
C3230       C  0.97446989  0.84684811  0.25405475     0.19800
F3231       F  0.94422351  0.81730125  0.25830271    -0.13000
F3232       F  0.94407535  0.87753602  0.25890811    -0.15400
F3233       F  0.56637164  0.87813833  0.24146035    -0.15400
F3234       F  0.56621804  0.93872613  0.24207829    -0.13000
C3235       C  0.97093703  0.62681429  0.24847470     0.25000
C3236       C  0.00243186  0.65851645  0.25038651    -0.23100
C3237       C  0.53377616  0.65772033  0.25229641     0.19900
C3238       C  0.53364905  0.62623951  0.25239312     0.24900
C3239       C  0.00218174  0.59452511  0.25055494    -0.23100
C3240       C  0.97081680  0.59526657  0.24855240     0.19800
F3241       F  0.93982826  0.56549590  0.24645541    -0.13000
F3242       F  0.94004764  0.62610268  0.24633839    -0.15400
F3243       F  0.56461650  0.62707871  0.25443321    -0.15400
F3244       F  0.56488032  0.68742730  0.25418137    -0.13000
C3245       C  0.53288500  0.51278599  0.15649337     0.25000
C3246       C  0.00089212  0.00013186  0.14566618    -0.23100
C3247       C  0.97001718  0.98961832  0.15677113     0.19900
C3248       C  0.97055947  0.99020831  0.17784058     0.24900
C3249       C  0.00199631  0.00130527  0.18841203    -0.23100
C3250       C  0.53320415  0.51309520  0.17755812     0.19800
F3251       F  0.56415560  0.52429901  0.18706498    -0.13000
F3252       F  0.56355773  0.52371896  0.14663530    -0.15400
F3253       F  0.94015066  0.98021846  0.18780804    -0.15400
F3254       F  0.93913173  0.97909032  0.14732479    -0.13000
C3255       C  0.97558942  0.97653980  0.34452258     0.25000
C3256       C  0.50298502  0.50441971  0.35543116    -0.23100
C3257       C  0.52986877  0.53195625  0.34455337     0.19900
C3258       C  0.53029499  0.53123174  0.32348191     0.24900
C3259       C  0.50355240  0.50323825  0.31287594    -0.23100
C3260       C  0.97603655  0.97610831  0.32348222     0.19800
F3261       F  0.94983158  0.94873099  0.31369679    -0.13000
F3262       F  0.94848304  0.95000502  0.35436988    -0.15400
F3263       F  0.55653262  0.55831097  0.31346287    -0.15400
F3264       F  0.55616592  0.55932742  0.35428573    -0.13000
loop_ 
_geom_bond_atom_site_label_1 
_geom_bond_atom_site_label_2 
_geom_bond_distance 
_geom_bond_site_symmetry_2 
_ccdc_geom_bond_type 
O1           Cu9   2.008       .  S
O1         C2459   1.278       .  A
O2           Cu9   2.011       .  S
O2           C12   1.278       .  A
O3         Cu825   2.009       .  S
O3           C13   1.278       .  A
O4           Cu9   2.003       .  S
O4           C14   1.277       .  A
O5         Cu826   2.013   1_545  S
O5         C1646   1.279       .  A
O6          Cu10   2.006       .  S
O6         C1645   1.278       .  A
O7          Cu10   2.003       .  S
O7         C2460   1.277       .  A
O8          Cu10   2.004       .  S
O8           C11   1.277       .  A
Cu9         O819   2.011   1_545  S
Cu9       Cu2458   2.367   1_445  S
Cu10        O821   2.009       .  S
Cu10      Cu2457   2.367       .  S
C11        O2449   1.278       .  A
C11         C801   1.487       .  S
C12        O2455   1.277   1_445  A
C12         C811   1.479       .  S
C13        O1638   1.278   1_455  A
C13        C2410   1.489       .  S
C14        O1637   1.279   1_455  A
C14        C2423   1.489       .  S
O15         Cu23   2.007       .  S
O15          C25   1.278       .  A
O16         Cu23   2.009       .  S
O16          C26   1.278       .  A
O17         Cu23   2.000       .  S
O17          C27   1.276       .  A
O18         Cu23   2.001       .  S
O18          C28   1.276       .  A
O19         Cu24   2.007       .  S
O19        C1660   1.278       .  A
O20         Cu24   2.008       .  S
O20        C1659   1.277       .  A
O21         Cu24   2.006       .  S
O21        C1658   1.278       .  A
O22         Cu24   2.010       .  S
O22        C1657   1.278       .  A
Cu23      Cu1656   2.371       .  S
Cu24      Cu1655   2.371   1_455  S
C25        O1654   1.278       .  A
C25         C781   1.490       .  S
C26        O1653   1.278       .  A
C26         C788   1.489       .  S
C27        O1652   1.277       .  A
C27         C768   1.463       .  S
C28        O1651   1.278       .  A
C28         C758   1.471       .  S
O29         Cu37   2.008       .  S
O29         C855   1.278       .  A
O30         Cu37   2.007       .  S
O30         C856   1.278       .  A
O31         Cu37   2.012       .  S
O31          C41   1.279       .  A
O32        Cu853   2.014       .  S
O32          C42   1.279       .  A
O33         Cu38   2.001       .  S
O33          C42   1.277       .  A
O34        Cu854   2.002   1_545  S
O34          C41   1.277       .  A
O35         Cu38   2.008       .  S
O35          C40   1.278       .  A
O36         Cu38   2.005       .  S
O36          C39   1.278       .  A
Cu37        O848   2.014   1_545  S
Cu37       Cu854   2.365   1_545  S
Cu38        O850   2.001       .  S
Cu38       Cu853   2.364       .  S
C39         O845   1.278       .  A
C39         C748   1.490       .  S
C40         O846   1.278       .  A
C40         C738   1.488       .  S
C41         C728   1.488       .  S
C42         C721   1.489       .  S
O43         Cu51   2.000       .  S
O43          C53   1.277       .  A
O44         Cu51   1.999       .  S
O44          C54   1.277       .  A
O45         Cu51   2.013       .  S
O45          C55   1.279       .  A
O46         Cu51   2.013       .  S
O46          C56   1.279       .  A
O47         Cu52   2.004       .  S
O47          C56   1.277       .  A
O48         Cu52   2.001       .  S
O48          C55   1.277       .  A
O49         Cu52   1.999       .  S
O49          C54   1.277       .  A
O50         Cu52   2.001       .  S
O50          C53   1.277       .  A
Cu51        Cu52   2.367       .  S
C53         C701   1.483       .  S
C54         C708   1.474       .  S
C55         C718   1.489       .  S
C56         C731   1.489       .  S
O57         Cu65   2.004       .  S
O57          C67   1.278       .  A
O58         Cu65   2.011       .  S
O58          C68   1.278       .  A
O59       Cu1697   2.008       .  S
O59          C69   1.278       .  A
O60         Cu65   2.004       .  S
O60          C70   1.277       .  A
O61       Cu1698   2.003   1_455  S
O61         C886   1.277       .  A
O62         Cu66   2.000       .  S
O62         C885   1.277       .  A
O63         Cu66   1.996       .  S
O63        C2516   1.276       .  A
O64         Cu66   2.000       .  S
O64        C2515   1.277       .  A
Cu65       O1691   2.008   1_455  S
Cu65      Cu2514   2.370   1_445  S
Cu66       O1693   2.003       .  S
Cu66      Cu2513   2.371       .  S
C67        O2512   1.278   1_445  A
C67         C671   1.484       .  S
C68        O2511   1.277   1_445  A
C68         C808   1.479       .  S
C69         O878   1.277   1_545  A
C69         C678   1.483       .  S
C70         O877   1.277   1_545  A
C70         C691   1.472       .  S
O71         Cu79   2.003       .  S
O71        C1713   1.277   1_455  A
O72         Cu79   2.003       .  S
O72        C1714   1.277   1_455  A
O73       Cu1711   2.000       .  S
O73          C83   1.277       .  A
O74         Cu79   2.002       .  S
O74          C84   1.277       .  A
O75       Cu1712   1.999   1_455  S
O75          C84   1.277       .  A
O76         Cu80   2.000       .  S
O76          C83   1.277       .  A
O77         Cu80   2.007       .  S
O77          C82   1.278       .  A
O78         Cu80   2.013       .  S
O78          C81   1.279       .  A
Cu79       O1705   2.000   1_455  S
Cu79      Cu1712   2.368   1_455  S
Cu80       O1707   1.999       .  S
Cu80      Cu1711   2.368       .  S
C81        O1703   1.277       .  A
C81         C641   1.487       .  S
C82        O1704   1.277       .  A
C82         C771   1.484       .  S
C83         C651   1.475       .  S
C84         C658   1.484       .  S
O85         Cu93   2.001       .  S
O85          C95   1.277       .  A
O86         Cu93   1.999       .  S
O86          C96   1.277       .  A
O87         Cu93   2.016       .  S
O87          C97   1.278       .  A
O88         Cu93   2.010       .  S
O88          C98   1.278   1_545  A
O89         Cu94   2.007       .  S
O89         C914   1.277       .  A
O90         Cu94   2.000       .  S
O90         C913   1.276       .  A
O91         Cu94   2.006       .  S
O91         C912   1.278       .  A
O92         Cu94   2.006       .  S
O92         C911   1.278       .  A
Cu93       Cu910   2.374   1_545  S
Cu94       Cu909   2.373       .  S
C95         O908   1.278   1_545  A
C95         C688   1.472       .  S
C96         O907   1.278   1_545  A
C96         C681   1.484       .  S
C97         O906   1.276   1_545  A
C97         C751   1.468       .  S
C98         O905   1.277       .  A
C98         C631   1.475       .  S
O99        Cu107   2.001       .  S
O99         C109   1.277       .  A
O100       Cu107   2.005       .  S
O100        C110   1.278       .  A
O101       Cu107   1.997       .  S
O101        C111   1.277       .  A
O102       Cu107   1.999       .  S
O102        C112   1.277       .  A
O103       Cu108   2.000       .  S
O103        C112   1.277       .  A
O104       Cu108   2.004       .  S
O104        C111   1.278       .  A
O105       Cu108   2.000       .  S
O105        C110   1.277       .  A
O106       Cu108   1.999       .  S
O106        C109   1.277       .  A
Cu107      Cu108   2.369       .  S
C109        C711   1.476       .  S
C110        C618   1.485       .  S
C111        C661   1.484       .  S
C112        C648   1.475       .  S
O113       Cu121   2.008       .  S
O113        C123   1.278       .  A
O114       Cu121   2.009       .  S
O114        C124   1.278       .  A
O115       Cu937   2.005   1_545  S
O115        C125   1.278       .  A
O116       Cu121   2.012       .  S
O116        C126   1.279       .  A
O117       Cu938   2.008       .  S
O117       C1758   1.278       .  A
O118       Cu122   2.008       .  S
O118       C1757   1.278       .  A
O119       Cu122   2.001       .  S
O119       C2572   1.277   1_545  A
O120       Cu122   1.999       .  S
O120       C2571   1.277   1_545  A
Cu121       O931   2.005       .  S
Cu121     Cu2570   2.367       .  S
Cu122       O933   2.008   1_545  S
Cu122     Cu2569   2.367   1_445  S
C123       O2568   1.277       .  A
C123        C608   1.477       .  S
C124       O2567   1.278       .  A
C124        C798   1.488       .  S
C125       O1750   1.278       .  A
C125        C601   1.488       .  S
C126       O1749   1.278       .  A
C126        C588   1.489       .  S
O127       Cu135   2.010       .  S
O127        C137   1.278       .  A
O128       Cu135   2.006       .  S
O128        C138   1.278       .  A
O129       Cu135   2.002       .  S
O129        C139   1.277       .  A
O130       Cu135   2.003       .  S
O130       C1772   1.277       .  A
O131       Cu136   2.005       .  S
O131        C140   1.277       .  A
O132       Cu136   2.003       .  S
O132       C1771   1.277       .  A
O133       Cu136   2.013       .  S
O133       C1770   1.279       .  A
O134       Cu136   2.005       .  S
O134       C1769   1.278       .  A
Cu135     Cu1768   2.368       .  S
Cu136     Cu1767   2.368   1_455  S
C137       O1766   1.278       .  A
C137        C598   1.488       .  S
C138       O1765   1.279       .  A
C138        C591   1.489       .  S
C139       O1764   1.277       .  A
C139        C578   1.483       .  S
C140       O1762   1.277   1_455  A
C140       C2393   1.471       .  S
O141       Cu149   2.009       .  S
O141        C151   1.278       .  A
O142       Cu149   2.009       .  S
O142        C152   1.277       .  A
O143       Cu149   2.012       .  S
O143        C153   1.279       .  A
O144       Cu965   2.006   1_545  S
O144        C154   1.278       .  A
O145       Cu150   2.011       .  S
O145        C154   1.279       .  A
O146       Cu966   2.003       .  S
O146        C153   1.277       .  A
O147       Cu150   2.005       .  S
O147        C968   1.276   1_545  A
O148       Cu150   2.006       .  S
O148        C967   1.278   1_545  A
Cu149       O960   2.008       .  S
Cu149      Cu966   2.368       .  S
Cu150       O962   2.004   1_545  S
Cu150      Cu965   2.369   1_545  S
C151        O964   1.278       .  A
C151        C741   1.488       .  S
C152        O963   1.277       .  A
C152        C571   1.467       .  S
C153        C548   1.489       .  S
C154        C561   1.490       .  S
O155       Cu163   2.008       .  S
O155        C165   1.278       .  A
O156       Cu163   2.010       .  S
O156        C166   1.278       .  A
O157       Cu163   2.000       .  S
O157        C167   1.277       .  A
O158       Cu163   2.001       .  S
O158        C168   1.277       .  A
O159       Cu164   1.999       .  S
O159        C168   1.277       .  A
O160       Cu164   2.001       .  S
O160        C167   1.277       .  A
O161       Cu164   2.009       .  S
O161        C166   1.278       .  A
O162       Cu164   2.005       .  S
O162        C165   1.278       .  A
Cu163      Cu164   2.365       .  S
C165        C551   1.488       .  S
C166        C558   1.490       .  S
C167        C541   1.483       .  S
C168        C698   1.483       .  S
O169       Cu177   1.998       .  S
O169       C1811   1.277   1_545  A
O170       Cu177   2.001       .  S
O170       C1812   1.277   1_545  A
O171      Cu1809   2.004   1_455  S
O171        C181   1.278       .  A
O172       Cu993   2.008       .  S
O172        C182   1.278       .  A
O173      Cu1810   2.010       .  S
O173        C182   1.278       .  A
O174       Cu994   2.010   1_545  S
O174        C181   1.278       .  A
O175       Cu178   2.007       .  S
O175        C996   1.278   1_455  A
O176       Cu178   2.004       .  S
O176        C995   1.277   1_455  A
Cu177      O1803   2.004       .  S
Cu177       O988   2.007   1_545  S
Cu177     Cu2626   2.368   1_545  S
Cu178      O1805   2.010   1_455  S
Cu178       O990   2.008       .  S
Cu178     Cu2625   2.368   1_455  S
C179       O1801   1.277   1_565  A
C179        O992   1.277   1_655  A
C179       C2163   1.475   1_655  S
C180       O1802   1.277   1_565  A
C180        O991   1.278   1_655  A
C180       C2243   1.480   1_655  S
C181        C518   1.489       .  S
C182        C508   1.489       .  S
O183      Cu1823   2.010       .  S
O183        C193   1.278       .  A
O184       Cu191   2.005       .  S
O184        C194   1.278       .  A
O185       Cu191   2.003       .  S
O185       C1827   1.276   1_455  A
O186       Cu191   2.004       .  S
O186       C1828   1.278   1_455  A
O187       Cu192   2.005       .  S
O187        C196   1.278       .  A
O188       Cu192   2.003       .  S
O188        C195   1.276       .  A
O189      Cu1824   2.011   1_455  S
O189        C194   1.279       .  A
O190       Cu192   2.007       .  S
O190        C193   1.278       .  A
Cu191      O1815   2.010   1_455  S
Cu191     Cu1824   2.368   1_455  S
Cu192      O1821   2.011       .  S
Cu192     Cu1823   2.368       .  S
C193        C478   1.490       .  S
C194        C488   1.489       .  S
C195       O1817   1.276       .  A
C195        C581   1.462       .  S
C196       O1818   1.278       .  A
C196        C498   1.487       .  S
O197      Cu1021   2.007   1_545  S
O197        C207   1.278       .  A
O198       Cu205   2.008       .  S
O198        C208   1.278       .  A
O199       Cu205   2.009       .  S
O199       C1025   1.278       .  A
O200       Cu205   2.009       .  S
O200       C1026   1.278       .  A
O201       Cu206   2.005       .  S
O201        C210   1.278   1_545  A
O202       Cu206   2.006       .  S
O202        C209   1.277   1_545  A
O203      Cu1022   2.005       .  S
O203        C208   1.278       .  A
O204       Cu206   2.011       .  S
O204        C207   1.279       .  A
Cu205      O1013   2.002       .  S
Cu205     Cu1022   2.367       .  S
Cu206      O1019   2.003   1_545  S
Cu206     Cu1021   2.367   1_545  S
C207        C481   1.490       .  S
C208        C491   1.489       .  S
C209       O1015   1.277       .  A
C209        C471   1.471       .  S
C210       O1016   1.278       .  A
C210        C568   1.487       .  S
O211       Cu219   2.003       .  S
O211        C221   1.277       .  A
O212       Cu219   2.003       .  S
O212        C222   1.277       .  A
O213       Cu219   2.015       .  S
O213        C223   1.279       .  A
O214       Cu219   2.006       .  S
O214        C224   1.278       .  A
O215       Cu220   2.007       .  S
O215        C224   1.278       .  A
O216       Cu220   2.004       .  S
O216        C223   1.277       .  A
O217       Cu220   2.000       .  S
O217        C222   1.277       .  A
O218       Cu220   2.001       .  S
O218        C221   1.277       .  A
Cu219      Cu220   2.368       .  S
C221        C461   1.485       .  S
C222        C538   1.467       .  S
C223        C511   1.489       .  S
C224        C521   1.489       .  S
O225       Cu233   2.002       .  S
O225       C1051   1.277       .  A
O226      Cu1865   1.999   1_455  S
O226       C1052   1.277       .  A
O227       Cu233   2.001       .  S
O227       C2685   1.276       .  A
O228       Cu233   2.005       .  S
O228       C2686   1.278       .  A
O229       Cu234   1.999       .  S
O229        C238   1.277   1_545  A
O230       Cu234   2.002       .  S
O230        C237   1.276   1_445  A
O231       Cu234   2.008       .  S
O231        C236   1.279   1_545  A
O232      Cu1866   2.002       .  S
O232        C235   1.277   1_545  A
Cu233      O1858   1.999       .  S
Cu233     Cu2682   2.372       .  S
Cu234      O1864   2.002   1_455  S
Cu234     Cu2681   2.372   1_445  S
C235       O1041   1.277       .  A
C235        C428   1.475       .  S
C236       O1042   1.276       .  A
C236        C438   1.482       .  S
C237       O2675   1.276       .  A
C237       C2080   1.462       .  S
C238       O2676   1.278   1_455  A
C238        C668   1.484       .  S
O239       Cu247   2.008       .  S
O239       C1881   1.278   1_455  A
O240       Cu247   2.013       .  S
O240       C1882   1.278       .  A
O241       Cu247   2.004       .  S
O241        C251   1.278       .  A
O242      Cu1879   1.998       .  S
O242        C252   1.276       .  A
O243       Cu248   2.008       .  S
O243        C252   1.278       .  A
O244      Cu1880   2.004   1_455  S
O244        C251   1.277       .  A
O245       Cu248   2.000       .  S
O245        C250   1.277       .  A
O246       Cu248   2.007       .  S
O246        C249   1.278       .  A
Cu247      O1874   1.998   1_455  S
Cu247     Cu1880   2.370   1_455  S
Cu248      O1876   2.004       .  S
Cu248     Cu1879   2.370       .  S
C249       O1871   1.278       .  A
C249        C638   1.486       .  S
C250       O1872   1.278       .  A
C250        C418   1.474       .  S
C251        C411   1.487       .  S
C252        C398   1.470       .  S
O253       Cu261   2.000       .  S
O253       C1079   1.277       .  A
O254       Cu261   2.012       .  S
O254       C1080   1.279       .  A
O255       Cu261   2.012       .  S
O255       C1081   1.278       .  A
O256       Cu261   2.005       .  S
O256       C1082   1.277       .  A
O257       Cu262   2.007       .  S
O257        C266   1.277   1_545  A
O258       Cu262   2.003       .  S
O258        C265   1.277   1_545  A
O259       Cu262   1.992       .  S
O259        C264   1.276   1_545  A
O260       Cu262   2.004       .  S
O260        C263   1.278   1_545  A
Cu261     Cu1078   2.373       .  S
Cu262     Cu1077   2.373   1_545  S
C263       O1069   1.277       .  A
C263        C431   1.475       .  S
C264       O1070   1.279       .  A
C264        C441   1.483       .  S
C265       O1071   1.278       .  A
C265        C628   1.475       .  S
C266       O1072   1.278       .  A
C266        C388   1.470       .  S
O267       Cu275   2.007       .  S
O267        C277   1.278       .  A
O268       Cu275   2.011       .  S
O268        C278   1.278       .  A
O269       Cu275   2.003       .  S
O269        C279   1.277       .  A
O270       Cu275   1.997       .  S
O270        C280   1.277       .  A
O271       Cu276   2.011       .  S
O271        C280   1.279       .  A
O272       Cu276   2.003       .  S
O272        C279   1.277       .  A
O273       Cu276   1.994       .  S
O273        C278   1.275       .  A
O274       Cu276   2.000       .  S
O274        C277   1.277       .  A
Cu275      Cu276   2.372       .  S
C277        C621   1.486       .  S
C278        C378   1.467       .  S
C279        C401   1.469       .  S
C280        C408   1.487       .  S
O281      Cu1921   2.004       .  S
O281        C291   1.278       .  A
O282      Cu1105   2.006   1_545  S
O282        C292   1.278       .  A
O283       Cu289   1.996       .  S
O283       C2741   1.276   1_455  A
O284       Cu289   1.996       .  S
O284       C2742   1.276   1_455  A
O285       Cu290   2.008       .  S
O285        C294   1.278   1_545  A
O286       Cu290   2.007       .  S
O286        C293   1.278   1_545  A
O287      Cu1922   2.011   1_455  S
O287        C292   1.278       .  A
O288      Cu1106   2.014       .  S
O288        C291   1.279       .  A
Cu289      O1913   2.004   1_455  S
Cu289      O1098   2.006       .  S
Cu289     Cu2738   2.367   1_455  S
Cu290      O1919   2.011       .  S
Cu290      O1104   2.014   1_545  S
Cu290     Cu2737   2.367   1_545  S
C291        C358   1.490       .  S
C292        C368   1.489       .  S
C293       O2731   1.276       .  A
C293        C528   1.476       .  S
C294       O2732   1.276       .  A
C294        C451   1.484       .  S
O295       Cu303   2.005       .  S
O295       C1937   1.278   1_455  A
O296       Cu303   2.004       .  S
O296       C1938   1.278   1_455  A
O297       Cu303   2.004       .  S
O297        C307   1.277       .  A
O298      Cu1935   2.002       .  S
O298        C308   1.277       .  A
O299       Cu304   2.013       .  S
O299        C308   1.279       .  A
O300      Cu1936   2.013   1_455  S
O300        C307   1.279       .  A
O301       Cu304   2.008       .  S
O301        C306   1.278       .  A
O302       Cu304   2.006       .  S
O302        C305   1.278       .  A
Cu303      O1930   2.002   1_455  S
Cu303     Cu1936   2.365   1_455  S
Cu304      O1932   2.013       .  S
Cu304     Cu1935   2.365       .  S
C305       O1927   1.278       .  A
C305        C501   1.488       .  S
C306       O1928   1.278       .  A
C306        C421   1.484       .  S
C307        C348   1.489       .  S
C308        C338   1.489       .  S
O309       Cu317   2.015       .  S
O309        C319   1.279       .  A
O310      Cu1133   2.008   1_545  S
O310        C320   1.278       .  A
O311       Cu317   2.003       .  S
O311       C1137   1.277       .  A
O312       Cu317   2.002       .  S
O312       C1138   1.277       .  A
O313       Cu318   2.010       .  S
O313        C322   1.278   1_545  A
O314       Cu318   2.009       .  S
O314        C321   1.278   1_545  A
O315       Cu318   2.004       .  S
O315        C320   1.278       .  A
O316      Cu1134   2.004       .  S
O316        C319   1.278       .  A
Cu317      O1126   2.007       .  S
Cu317     Cu1134   2.368       .  S
Cu318      O1132   2.000   1_545  S
Cu318     Cu1133   2.367   1_545  S
C319        C351   1.489       .  S
C320        C341   1.488       .  S
C321       O1127   1.277       .  A
C321        C468   1.471       .  S
C322       O1128   1.277       .  A
C322        C391   1.489       .  S
O323       Cu331   2.007       .  S
O323        C333   1.278       .  A
O324       Cu331   2.008       .  S
O324        C334   1.278       .  A
O325       Cu331   2.013       .  S
O325        C335   1.279       .  A
O326       Cu331   2.012       .  S
O326        C336   1.278       .  A
O327       Cu332   2.005       .  S
O327        C336   1.278       .  A
O328       Cu332   2.007       .  S
O328        C335   1.278       .  A
O329       Cu332   1.999       .  S
O329        C334   1.277       .  A
O330       Cu332   1.999       .  S
O330        C333   1.277       .  A
Cu331      Cu332   2.365       .  S
C333        C458   1.485       .  S
C334        C381   1.486       .  S
C335        C361   1.491       .  S
C336        C371   1.489       .  S
C337        C338   1.411       .  A
C337        C342   1.399       .  A
C337        F344   1.358       .  S
C338        C339   1.409       .  A
C339        C340   1.398       .  A
C339        F346   1.358       .  S
C340        C341   1.410       .  A
C340        F345   1.358       .  S
C341        C342   1.410       .  A
C342        F343   1.358       .  S
C347        C348   1.409       .  A
C347        C352   1.399       .  A
C347        F354   1.358       .  S
C348        C349   1.410       .  A
C349        C350   1.399       .  A
C349        F356   1.358       .  S
C350        C351   1.409       .  A
C350        F355   1.358       .  S
C351        C352   1.410       .  A
C352        F353   1.358       .  S
C357        C358   1.411       .  A
C357        C362   1.399       .  A
C357        F364   1.358       .  S
C358        C359   1.410       .  A
C359        C360   1.400       .  A
C359        F366   1.358       .  S
C360        C361   1.411       .  A
C360        F365   1.358       .  S
C361        C362   1.410       .  A
C362        F363   1.358       .  S
C367        C368   1.410       .  A
C367        C372   1.399       .  A
C367        F374   1.358       .  S
C368        C369   1.409       .  A
C369        C370   1.398       .  A
C369        F376   1.358       .  S
C370        C371   1.410       .  A
C370        F375   1.358       .  S
C371        C372   1.409       .  A
C372        F373   1.358       .  S
C377        C378   1.402       .  A
C377        C382   1.397       .  A
C377        F384   1.358       .  S
C378        C379   1.400       .  A
C379        C380   1.397       .  A
C379        F386   1.358       .  S
C380        C381   1.413       .  A
C380        F385   1.358       .  S
C381        C382   1.412       .  A
C382        F383   1.358       .  S
C387        C388   1.402   1_545  A
C387        C392   1.399       .  A
C387        F394   1.358       .  S
C388       C1205   1.401       .  A
C389        C390   1.397       .  A
C389       C1204   1.401       .  A
C389        F396   1.358       .  S
C390       C1207   1.413       .  A
C390        F395   1.358       .  S
C391        C392   1.413   1_565  A
C391       C1206   1.413       .  A
C392        F393   1.358       .  S
C397        C398   1.405       .  A
C397        C402   1.397       .  A
C397        F404   1.358       .  S
C398        C399   1.405       .  A
C399        C400   1.397       .  A
C399        F406   1.358       .  S
C400        C401   1.404       .  A
C400        F405   1.358       .  S
C401        C402   1.405       .  A
C402        F403   1.358       .  S
C407        C408   1.410       .  A
C407        C412   1.396       .  A
C407        F414   1.358       .  S
C408        C409   1.409       .  A
C409        C410   1.398       .  A
C409        F416   1.358       .  S
C410        C411   1.410       .  A
C410        F415   1.358       .  S
C411        C412   1.409       .  A
C412        F413   1.358       .  S
C417        C422   1.397       .  A
C417       C2050   1.404       .  A
C417        F424   1.358       .  S
C418        C419   1.404       .  A
C418       C2049   1.404       .  A
C419        C420   1.399       .  A
C419        F426   1.358       .  S
C420        C421   1.411       .  A
C420        F425   1.358       .  S
C421       C2054   1.410       .  A
C422       C2053   1.410   1_455  A
C422        F423   1.358       .  S
C427        C428   1.406   1_545  A
C427        C432   1.397       .  A
C427        F434   1.358       .  S
C428       C1245   1.406       .  A
C429        C430   1.396       .  A
C429       C1244   1.406       .  A
C429        F436   1.358       .  S
C430       C1247   1.407       .  A
C430        F435   1.358       .  S
C431        C432   1.407   1_565  A
C431       C1246   1.407       .  A
C432        F433   1.358       .  S
C437        C438   1.407   1_545  A
C437        C442   1.396       .  A
C437        F444   1.358       .  S
C438       C1255   1.410       .  A
C439        C440   1.398       .  A
C439       C1254   1.410       .  A
C439        F446   1.358       .  S
C440       C1257   1.409       .  A
C440        F445   1.358       .  S
C441        C442   1.410   1_565  A
C441       C1256   1.408       .  A
C442        F443   1.358       .  S
C447        C452   1.396       .  A
C447       C2080   1.398   1_455  A
C447        F454   1.358       .  S
C448       C1869   1.462       .  S
C448       C2079   1.398       .  A
C448       C1265   1.401   1_565  A
C449        C450   1.397       .  A
C449       C1264   1.400       .  A
C449        F456   1.358       .  S
C450       C1267   1.412       .  A
C450        F455   1.358       .  S
C451       C1266   1.412   1_565  A
C451       C2084   1.413       .  A
C452       C2083   1.413   1_455  A
C452        F453   1.358       .  S
C457        C458   1.409       .  A
C457        C462   1.397       .  A
C457        F464   1.358       .  S
C458        C459   1.410       .  A
C459        C460   1.396       .  A
C459        F466   1.358       .  S
C460        C461   1.409       .  A
C460        F465   1.358       .  S
C461        C462   1.410       .  A
C462        F463   1.358       .  S
C467        C472   1.399       .  A
C467       C1284   1.405       .  A
C467        F474   1.358       .  S
C468        C469   1.405       .  A
C468       C1283   1.405   1_565  A
C469        C470   1.399       .  A
C469        F476   1.358       .  S
C470        C471   1.405       .  A
C470        F475   1.358       .  S
C471       C1288   1.405   1_565  A
C472       C1287   1.405       .  A
C472        F473   1.358       .  S
C477        C478   1.410       .  A
C477        C482   1.399       .  A
C477        F484   1.358       .  S
C478        C479   1.410       .  A
C479        C480   1.399       .  A
C479        F486   1.358       .  S
C480        C481   1.410       .  A
C480        F485   1.358       .  S
C481        C482   1.411       .  A
C482        F483   1.358       .  S
C487        C488   1.410       .  A
C487        C492   1.399       .  A
C487        F494   1.358       .  S
C488        C489   1.410       .  A
C489        C490   1.398       .  A
C489        F496   1.358       .  S
C490        C491   1.410       .  A
C490        F495   1.358       .  S
C491        C492   1.410       .  A
C492        F493   1.358       .  S
C497        C502   1.398       .  A
C497       C2130   1.410       .  A
C497        F504   1.358       .  S
C498        C499   1.410       .  A
C498       C2129   1.410       .  A
C499        C500   1.397       .  A
C499        F506   1.358       .  S
C500        C501   1.410       .  A
C500        F505   1.358       .  S
C501       C2134   1.410       .  A
C502       C2133   1.410       .  A
C502        F503   1.358       .  S
C507        C508   1.410       .  A
C507        C512   1.400       .  A
C507        F514   1.358       .  S
C508        C509   1.409       .  A
C509        C510   1.398       .  A
C509        F516   1.358       .  S
C510        C511   1.410       .  A
C510        F515   1.358       .  S
C511        C512   1.409       .  A
C512        F513   1.358       .  S
C517        C518   1.410       .  A
C517        C522   1.397       .  A
C517        F524   1.358       .  S
C518        C519   1.410       .  A
C519        C520   1.399       .  A
C519        F526   1.358       .  S
C520        C521   1.410       .  A
C520        F525   1.358       .  S
C521        C522   1.410       .  A
C522        F523   1.358       .  S
C527        C532   1.397       .  A
C527       C1344   1.406       .  A
C527        F534   1.358       .  S
C528       C1343   1.406   1_565  A
C528       C2161   1.408       .  A
C529        C530   1.397       .  A
C529       C2160   1.408       .  A
C529        F536   1.358       .  S
C530       C2163   1.406   1_655  A
C530        F535   1.358       .  S
C531       C1811   1.475       .  S
C531       C2162   1.406       .  A
C531       C1348   1.407   1_565  A
C532       C1347   1.407       .  A
C532        F533   1.358       .  S
C537        C538   1.402       .  A
C537        C542   1.397   1_556  A
C537        F544   1.358       .  S
C538        C539   1.402       .  A
C539        C540   1.396   1_556  A
C539        F546   1.358       .  S
C540        C541   1.411       .  A
C540        F545   1.358       .  S
C541        C542   1.412       .  A
C542        F543   1.358       .  S
C547        C548   1.409       .  A
C547        C552   1.398       .  A
C547        F554   1.358       .  S
C548        C549   1.411       .  A
C549        C550   1.399       .  A
C549        F556   1.358       .  S
C550        C551   1.410       .  A
C550        F555   1.358       .  S
C551        C552   1.410       .  A
C552        F553   1.358       .  S
C557        C558   1.410       .  A
C557        C562   1.399       .  A
C557        F564   1.358       .  S
C558        C559   1.410       .  A
C559        C560   1.399       .  A
C559        F566   1.358       .  S
C560        C561   1.410       .  A
C560        F565   1.358       .  S
C561        C562   1.410       .  A
C562        F563   1.358       .  S
C567        C568   1.413   1_545  A
C567        C572   1.397   1_556  A
C567        F574   1.358       .  S
C568       C1385   1.413       .  A
C569        C570   1.399   1_556  A
C569       C1384   1.413       .  A
C569        F576   1.358       .  S
C570        C571   1.401       .  A
C570        F575   1.358       .  S
C571       C1388   1.400       .  A
C572       C1387   1.400   1_545  A
C572        F573   1.358       .  S
C577        C582   1.397   1_554  A
C577       C2210   1.412       .  A
C577        F584   1.358       .  S
C578        C579   1.412       .  A
C578       C2209   1.412       .  A
C579        C580   1.397   1_554  A
C579        F586   1.358       .  S
C580        C581   1.400       .  A
C580        F585   1.358       .  S
C581       C2214   1.400       .  A
C582       C2213   1.400       .  A
C582        F583   1.358       .  S
C587        C592   1.400       .  A
C587       C2220   1.410       .  A
C587        F594   1.358       .  S
C588        C589   1.409       .  A
C588       C2219   1.410       .  A
C589        C590   1.399       .  A
C589        F596   1.358       .  S
C590        C591   1.410       .  A
C590        F595   1.358       .  S
C591       C2224   1.410       .  A
C592       C2223   1.410       .  A
C592        F593   1.358       .  S
C597        C602   1.398       .  A
C597       C2230   1.410       .  A
C597        F604   1.358       .  S
C598        C599   1.410       .  A
C598       C2229   1.410       .  A
C599        C600   1.399       .  A
C599        F606   1.358       .  S
C600        C601   1.410       .  A
C600        F605   1.358       .  S
C601       C2234   1.409       .  A
C602       C2233   1.409       .  A
C602        F603   1.358       .  S
C607        C612   1.397   1_554  A
C607       C3056   1.406   1_565  A
C607        F614   1.358       .  S
C608        C609   1.406       .  A
C608       C3055   1.406       .  A
C609        C610   1.399   1_554  A
C609        F616   1.358       .  S
C610       C1427   1.409       .  A
C610        F615   1.358       .  S
C611       C1812   1.480       .  S
C611       C1426   1.409   1_565  A
C611       C2244   1.408       .  A
C612       C2243   1.408       .  A
C612        F613   1.358       .  S
C617        C618   1.408       .  A
C617        C622   1.396       .  A
C617        F624   1.358       .  S
C618        C619   1.410       .  A
C619        C620   1.398       .  A
C619        F626   1.358       .  S
C620        C621   1.409       .  A
C620        F625   1.358       .  S
C621        C622   1.410       .  A
C622        F623   1.358       .  S
C627        C628   1.406   1_545  A
C627        C632   1.398       .  A
C627        F634   1.358       .  S
C628       C1445   1.406       .  A
C629        C630   1.401       .  A
C629       C1444   1.406       .  A
C629        F636   1.358       .  S
C630       C1447   1.407       .  A
C630        F635   1.358       .  S
C631        C632   1.405   1_565  A
C631       C1446   1.407       .  A
C632        F633   1.358       .  S
C637        C638   1.410       .  A
C637        C642   1.400       .  A
C637        F644   1.358       .  S
C638       C2271   1.408       .  A
C639        C640   1.397       .  A
C639       C2270   1.408   1_455  A
C639        F646   1.358       .  S
C640       C2273   1.410   1_455  A
C640        F645   1.358       .  S
C641        C642   1.409       .  A
C641       C2272   1.410       .  A
C642        F643   1.358       .  S
C647        C648   1.406       .  A
C647        C652   1.396       .  A
C647        F654   1.358       .  S
C648        C649   1.407       .  A
C649        C650   1.396       .  A
C649        F656   1.358       .  S
C650        C651   1.407       .  A
C650        F655   1.358       .  S
C651        C652   1.407       .  A
C652        F653   1.358       .  S
C657        C658   1.409       .  A
C657        C662   1.397       .  A
C657        F664   1.358       .  S
C658        C659   1.409       .  A
C659        C660   1.395       .  A
C659        F666   1.358       .  S
C660        C661   1.410       .  A
C660        F665   1.358       .  S
C661        C662   1.409       .  A
C662        F663   1.358       .  S
C667        C668   1.410   1_545  A
C667        C672   1.397       .  A
C667        F674   1.358       .  S
C668       C3117   1.409   1_455  A
C669        C670   1.396       .  A
C669       C3116   1.408       .  A
C669        F676   1.358       .  S
C670       C3119   1.408       .  A
C670        F675   1.358       .  S
C671        C672   1.409       .  A
C671       C3118   1.409   1_445  A
C672        F673   1.358       .  S
C677        C682   1.397       .  A
C677       C1494   1.409       .  A
C677        F684   1.358       .  S
C678        C679   1.408       .  A
C678       C1493   1.409   1_545  A
C679        C680   1.397       .  A
C679        F686   1.358       .  S
C680        C681   1.410       .  A
C680        F685   1.358       .  S
C681       C1498   1.408   1_545  A
C682       C1497   1.409       .  A
C682        F683   1.358       .  S
C687        C688   1.406       .  A
C687        C692   1.397       .  A
C687        F694   1.358       .  S
C688       C1505   1.405   1_545  A
C689        C690   1.397       .  A
C689       C1504   1.405       .  A
C689        F696   1.358       .  S
C690       C1507   1.406       .  A
C690        F695   1.358       .  S
C691        C692   1.405       .  A
C691       C1506   1.406   1_545  A
C692        F693   1.358       .  S
C697        C698   1.409       .  A
C697        C702   1.397       .  A
C697        F704   1.358       .  S
C698        C699   1.409       .  A
C699        C700   1.396       .  A
C699        F706   1.358       .  S
C700        C701   1.409       .  A
C700        F705   1.358       .  S
C701        C702   1.409       .  A
C702        F703   1.358       .  S
C707        C708   1.406       .  A
C707        C712   1.396       .  A
C707        F714   1.358       .  S
C708        C709   1.406       .  A
C709        C710   1.397       .  A
C709        F716   1.358       .  S
C710        C711   1.407       .  A
C710        F715   1.358       .  S
C711        C712   1.407       .  A
C712        F713   1.358       .  S
C717        C718   1.411       .  A
C717        C722   1.399       .  A
C717        F724   1.358       .  S
C718        C719   1.409       .  A
C719        C720   1.398       .  A
C719        F726   1.358       .  S
C720        C721   1.411       .  A
C720        F725   1.358       .  S
C721        C722   1.409       .  A
C722        F723   1.358       .  S
C727        C728   1.411       .  A
C727        C732   1.399       .  A
C727        F734   1.358       .  S
C728        C729   1.409       .  A
C729        C730   1.398       .  A
C729        F736   1.358       .  S
C730        C731   1.411       .  A
C730        F735   1.358       .  S
C731        C732   1.409       .  A
C732        F733   1.358       .  S
C737        C738   1.409       .  A
C737        C742   1.398       .  A
C737        F744   1.358       .  S
C738       C1555   1.410       .  A
C739        C740   1.398       .  A
C739       C1554   1.409   1_565  A
C739        F746   1.358       .  S
C740       C1557   1.409       .  A
C740        F745   1.358       .  S
C741        C742   1.409       .  A
C741       C1556   1.410       .  A
C742        F743   1.358       .  S
C747        C752   1.400       .  A
C747       C1564   1.414       .  A
C747        F754   1.358       .  S
C748        C749   1.412       .  A
C748       C1563   1.414       .  A
C749        C750   1.396       .  A
C749        F756   1.358       .  S
C750       C1567   1.401       .  A
C750        F755   1.358       .  S
C751        C752   1.402       .  A
C751       C1566   1.401   1_545  A
C752        F753   1.358       .  S
C757        C762   1.398       .  A
C757       C2390   1.405       .  A
C757        F764   1.358       .  S
C758        C759   1.405       .  A
C758       C2389   1.405       .  A
C759        C760   1.397       .  A
C759        F766   1.358       .  S
C760        C761   1.405       .  A
C760        F765   1.358       .  S
C761       C1772   1.471       .  S
C761       C2394   1.405       .  A
C762       C2393   1.405       .  A
C762        F763   1.358       .  S
C767        C772   1.398       .  A
C767       C2400   1.400   1_655  A
C767        F774   1.358       .  S
C768        C769   1.400       .  A
C768       C2399   1.400       .  A
C769        C770   1.398       .  A
C769        F776   1.358       .  S
C770        C771   1.412       .  A
C770        F775   1.358       .  S
C771       C2404   1.412       .  A
C772       C2403   1.412   1_655  A
C772        F773   1.358       .  S
C777        C778   1.410       .  A
C777        C782   1.397       .  A
C777        F784   1.358       .  S
C778       C1645   1.489       .  S
C778       C2411   1.411       .  A
C779        C780   1.400       .  A
C779       C2410   1.411       .  A
C779        F786   1.358       .  S
C780       C2413   1.411       .  A
C780        F785   1.358       .  S
C781        C782   1.410       .  A
C781       C2412   1.411       .  A
C782        F783   1.358       .  S
C787        C788   1.411       .  A
C787        C792   1.400       .  A
C787        F794   1.358       .  S
C788       C2421   1.409       .  A
C789        C790   1.397       .  A
C789       C2420   1.409       .  A
C789        F796   1.358       .  S
C790       C2423   1.410       .  A
C790        F795   1.358       .  S
C791       C1646   1.489       .  S
C791        C792   1.410       .  A
C791       C2422   1.410       .  A
C792        F793   1.358       .  S
C797        C802   1.397       .  A
C797       C3246   1.410       .  A
C797        F804   1.358       .  S
C798        C799   1.410       .  A
C798       C3245   1.410       .  A
C799        C800   1.399       .  A
C799        F806   1.358       .  S
C800        C801   1.410       .  A
C800        F805   1.358       .  S
C801       C3250   1.409       .  A
C802       C3249   1.409       .  A
C802        F803   1.358       .  S
C807        C812   1.396       .  A
C807       C3256   1.408       .  A
C807        F814   1.358       .  S
C808        C809   1.408       .  A
C808       C3255   1.407   1_445  A
C809        C810   1.399       .  A
C809        F816   1.358       .  S
C810        C811   1.407       .  A
C810        F815   1.358       .  S
C811       C3260   1.407   1_445  A
C812       C3259   1.406       .  A
C812        F813   1.358       .  S
O817       Cu825   2.007       .  S
O817       C1643   1.278       .  A
O818       Cu825   2.007       .  S
O818        C828   1.278       .  A
O819        C829   1.278       .  A
O820       Cu825   2.002       .  S
O820        C830   1.277       .  A
O821       C2462   1.278       .  A
O822       Cu826   2.010       .  S
O822       C2461   1.279       .  A
O823       Cu826   2.000       .  S
O823       C1644   1.277   1_565  A
O824       Cu826   2.000       .  S
O824        C827   1.277   1_565  A
Cu825     Cu1642   2.367   1_455  S
Cu826     Cu1641   2.367   1_565  S
C827       O1633   1.278       .  A
C827       C1617   1.486       .  S
C828       O1639   1.277   1_455  A
C828       C1627   1.477       .  S
C829       O2454   1.279   1_455  A
C829       C3226   1.489       .  S
C830       O2453   1.278   1_455  A
C830       C3239   1.487       .  S
O831       Cu839   2.005       .  S
O831        C841   1.278       .  A
O832       Cu839   2.010       .  S
O832        C842   1.278       .  A
O833       Cu839   2.000       .  S
O833        C843   1.277       .  A
O834       Cu839   1.998       .  S
O834        C844   1.276       .  A
O835       Cu840   2.012       .  S
O835       C2476   1.278       .  A
O836       Cu840   2.012       .  S
O836       C2475   1.279       .  A
O837       Cu840   2.002       .  S
O837       C2474   1.278       .  A
O838       Cu840   2.015       .  S
O838       C2473   1.279       .  A
Cu839     Cu2472   2.368       .  S
Cu840     Cu2471   2.368   1_455  S
C841       O2470   1.279       .  A
C841       C1597   1.489       .  S
C842       O2469   1.278       .  A
C842       C1604   1.488       .  S
C843       O2468   1.279       .  A
C843       C1584   1.483       .  S
C844       O2467   1.278       .  A
C844       C1574   1.472       .  S
O845       Cu853   2.012       .  S
O846       Cu853   2.010       .  S
O847       Cu853   2.012       .  S
O847        C857   1.279       .  A
O848        C858   1.279       .  A
O849       Cu854   2.001       .  S
O849        C858   1.277       .  A
O850        C857   1.277       .  A
O851       Cu854   2.006       .  S
O851        C856   1.278   1_565  A
O852       Cu854   2.006       .  S
O852        C855   1.278   1_565  A
C855       C1564   1.489       .  S
C856       C1554   1.485       .  S
C857       C1544   1.488       .  S
C858       C1537   1.489       .  S
O859       Cu867   1.999       .  S
O859        C869   1.277       .  A
O860       Cu867   1.999       .  S
O860        C870   1.276       .  A
O861       Cu867   2.014       .  S
O861        C871   1.279       .  A
O862       Cu867   2.011       .  S
O862        C872   1.279       .  A
O863       Cu868   2.003       .  S
O863        C872   1.277       .  A
O864       Cu868   1.999       .  S
O864        C871   1.277       .  A
O865       Cu868   2.002       .  S
O865        C870   1.277       .  A
O866       Cu868   2.003       .  S
O866        C869   1.278       .  A
Cu867      Cu868   2.367       .  S
C869       C1517   1.484       .  S
C870       C1524   1.474       .  S
C871       C1534   1.489       .  S
C872       C1547   1.489       .  S
O873       Cu881   2.005       .  S
O873        C883   1.278       .  A
O874       Cu881   2.011       .  S
O874        C884   1.279       .  A
O875      Cu2513   2.007       .  S
O875        C885   1.278       .  A
O876       Cu881   2.004       .  S
O876        C886   1.277       .  A
O877      Cu2514   2.003   1_455  S
O878       Cu882   2.001       .  S
O879       Cu882   1.998       .  S
O879       C1700   1.277   1_565  A
O880       Cu882   2.004       .  S
O880       C1699   1.278   1_565  A
Cu881      O2507   2.007   1_455  S
Cu881     Cu1698   2.371   1_455  S
Cu882      O2509   2.003       .  S
Cu882     Cu1697   2.370   1_565  S
C883       O1696   1.277   1_455  A
C883       C1487   1.482       .  S
C884       O1695   1.276   1_455  A
C884       C1624   1.479       .  S
C885       C1494   1.482       .  S
C886       C1507   1.472       .  S
O887       Cu895   2.001       .  S
O887       C2529   1.277   1_455  A
O888       Cu895   2.003       .  S
O888       C2530   1.276       .  A
O889      Cu2527   2.001       .  S
O889        C899   1.277       .  A
O890       Cu895   2.000       .  S
O890        C900   1.277       .  A
O891      Cu2528   2.004   1_455  S
O891        C900   1.278       .  A
O892       Cu896   1.998       .  S
O892        C899   1.277       .  A
O893       Cu896   2.009       .  S
O893        C898   1.277       .  A
O894       Cu896   2.014       .  S
O894        C897   1.279       .  A
Cu895      O2521   2.001   1_455  S
Cu895     Cu2528   2.372   1_455  S
Cu896      O2523   2.004       .  S
Cu896     Cu2527   2.372       .  S
C897       O2519   1.277       .  A
C897       C1457   1.486       .  S
C898       O2520   1.276       .  A
C898       C1587   1.464       .  S
C899       C1467   1.475       .  S
C900       C1474   1.483       .  S
O901       Cu909   2.003       .  S
O901        C911   1.277       .  A
O902       Cu909   1.999       .  S
O902        C912   1.277       .  A
O903       Cu909   2.018       .  S
O903        C913   1.278       .  A
O904       Cu909   2.009       .  S
O904        C914   1.278       .  A
O905       Cu910   2.008       .  S
O906       Cu910   1.999       .  S
O907       Cu910   2.008       .  S
O908       Cu910   2.008       .  S
C911       C1504   1.473       .  S
C912       C1497   1.484       .  S
C913       C1567   1.470       .  S
C914       C1447   1.474       .  S
O915       Cu923   2.004       .  S
O915        C925   1.278       .  A
O916       Cu923   2.007       .  S
O916        C926   1.278       .  A
O917       Cu923   2.001       .  S
O917        C927   1.277       .  A
O918       Cu923   2.002       .  S
O918        C928   1.277       .  A
O919       Cu924   1.999       .  S
O919        C928   1.277       .  A
O920       Cu924   2.002       .  S
O920        C927   1.278       .  A
O921       Cu924   1.998       .  S
O921        C926   1.277       .  A
O922       Cu924   1.998       .  S
O922        C925   1.277       .  A
Cu923      Cu924   2.369       .  S
C925       C1527   1.477       .  S
C926       C1434   1.484       .  S
C927       C1477   1.483       .  S
C928       C1464   1.475       .  S
O929       Cu937   2.008       .  S
O929        C939   1.278       .  A
O930       Cu937   2.010       .  S
O930        C940   1.278       .  A
O931        C941   1.278       .  A
O932       Cu937   2.011       .  S
O932        C942   1.278       .  A
O933       C2574   1.278       .  A
O934       Cu938   2.008       .  S
O934       C2573   1.278       .  A
O935       Cu938   2.005       .  S
O935       C1756   1.278       .  A
O936       Cu938   2.004       .  S
O936       C1755   1.277       .  A
Cu937     Cu1754   2.367   1_565  S
Cu938     Cu1753   2.367   1_455  S
C939       O1752   1.277   1_565  A
C939       C1424   1.476   1_565  S
C940       O1751   1.277   1_565  A
C940       C1614   1.486   1_565  S
C941       O2566   1.278       .  A
C941       C1417   1.487       .  S
C942       O2565   1.278       .  A
C942       C1404   1.489       .  S
O943       Cu951   2.007       .  S
O943        C953   1.278       .  A
O944       Cu951   2.007       .  S
O944        C954   1.278       .  A
O945       Cu951   2.004       .  S
O945        C955   1.278       .  A
O946       Cu951   2.006       .  S
O946       C2588   1.278       .  A
O947       Cu952   2.004       .  S
O947        C956   1.277       .  A
O948       Cu952   2.000       .  S
O948       C2587   1.277   1_455  A
O949       Cu952   2.013       .  S
O949       C2586   1.279       .  A
O950       Cu952   2.005       .  S
O950       C2585   1.278       .  A
Cu951     Cu2584   2.369       .  S
Cu952     Cu2583   2.369   1_455  S
C953       O2582   1.278       .  A
C953       C1414   1.487       .  S
C954       O2581   1.279       .  A
C954       C1407   1.489       .  S
C955       O2580   1.277       .  A
C955       C1394   1.480       .  S
C956       O2578   1.278   1_455  A
C956       C3209   1.472       .  S
O957       Cu965   2.007       .  S
O957        C967   1.278       .  A
O958       Cu965   2.006       .  S
O958        C968   1.277       .  A
O959       Cu965   2.009       .  S
O959        C969   1.278       .  A
O960        C970   1.278       .  A
O961       Cu966   2.009       .  S
O961        C970   1.278       .  A
O962        C969   1.277       .  A
O963       Cu966   2.006       .  S
O964       Cu966   2.006       .  S
C967       C1557   1.486       .  S
C968       C1387   1.465       .  S
C969       C1364   1.487       .  S
C970       C1377   1.490       .  S
O971       Cu979   2.009       .  S
O971        C981   1.278       .  A
O972       Cu979   2.009       .  S
O972        C982   1.278       .  A
O973       Cu979   2.001       .  S
O973        C983   1.277       .  A
O974       Cu979   2.000       .  S
O974        C984   1.277       .  A
O975       Cu980   2.001       .  S
O975        C984   1.277       .  A
O976       Cu980   2.003       .  S
O976        C983   1.277       .  A
O977       Cu980   2.009       .  S
O977        C982   1.278       .  A
O978       Cu980   2.003       .  S
O978        C981   1.277       .  A
Cu979      Cu980   2.367       .  S
C981       C1367   1.486       .  S
C982       C1374   1.490       .  S
C983       C1357   1.478       .  S
C984       C1514   1.484       .  S
O985       Cu993   2.000       .  S
O985       C2627   1.277       .  A
O986       Cu993   2.005       .  S
O986       C2628   1.277       .  A
O987      Cu2625   2.002   1_455  S
O987        C997   1.278       .  A
O988        C998   1.278       .  A
O989      Cu2626   2.011       .  S
O989        C998   1.279       .  A
O990        C997   1.278       .  A
O991       Cu994   2.006       .  S
O992       Cu994   2.005       .  S
Cu993      O2619   2.002       .  S
Cu993     Cu1810   2.368       .  S
Cu994      O2621   2.011   1_455  S
Cu994     Cu1809   2.368   1_465  S
C995       O2617   1.277       .  A
C995       C2979   1.476       .  S
C996       O2618   1.277       .  A
C996       C3059   1.481   1_655  S
C997       C1334   1.488       .  S
C998       C1324   1.490       .  S
O999      Cu2639   2.009       .  S
O999       C1009   1.278       .  A
O1000     Cu1007   2.006       .  S
O1000      C1010   1.278       .  A
O1001     Cu1007   2.005       .  S
O1001      C2643   1.276   1_455  A
O1002     Cu1007   2.006       .  S
O1002      C2644   1.278   1_455  A
O1003     Cu1008   2.003       .  S
O1003      C1012   1.277       .  A
O1004     Cu1008   2.001       .  S
O1004      C1011   1.276       .  A
O1005     Cu2640   2.007   1_455  S
O1005      C1010   1.278       .  A
O1006     Cu1008   2.003       .  S
O1006      C1009   1.277       .  A
Cu1007     O2631   2.009   1_455  S
Cu1007    Cu2640   2.369   1_455  S
Cu1008     O2637   2.007       .  S
Cu1008    Cu2639   2.369       .  S
C1009      C1294   1.488       .  S
C1010      C1304   1.488       .  S
C1011      O2633   1.276       .  A
C1011      C1397   1.461       .  S
C1012      O2634   1.278       .  A
C1012      C1314   1.487       .  S
O1013      C1023   1.277       .  A
O1014     Cu1021   2.010       .  S
O1014      C1024   1.279       .  A
O1015     Cu1021   2.007       .  S
O1016     Cu1021   2.008       .  S
O1017     Cu1022   2.005       .  S
O1017      C1026   1.278       .  A
O1018     Cu1022   2.006       .  S
O1018      C1025   1.277       .  A
O1019      C1024   1.277       .  A
O1020     Cu1022   2.011       .  S
O1020      C1023   1.279       .  A
C1023      C1297   1.488       .  S
C1024      C1307   1.488       .  S
C1025      C1287   1.471       .  S
C1026      C1384   1.488       .  S
O1027     Cu1035   2.001       .  S
O1027      C1037   1.277       .  A
O1028     Cu1035   2.002       .  S
O1028      C1038   1.277       .  A
O1029     Cu1035   2.013       .  S
O1029      C1039   1.279       .  A
O1030     Cu1035   2.006       .  S
O1030      C1040   1.278       .  A
O1031     Cu1036   2.005       .  S
O1031      C1040   1.277       .  A
O1032     Cu1036   2.004       .  S
O1032      C1039   1.277       .  A
O1033     Cu1036   2.003       .  S
O1033      C1038   1.277       .  A
O1034     Cu1036   2.002       .  S
O1034      C1037   1.277       .  A
Cu1035    Cu1036   2.367       .  S
C1037      C1277   1.484       .  S
C1038      C1354   1.476       .  S
C1039      C1327   1.490       .  S
C1040      C1337   1.488       .  S
O1041     Cu1049   2.000       .  S
O1042     Cu2681   1.998   1_455  S
O1043     Cu1049   2.003       .  S
O1043      C1869   1.276       .  A
O1044     Cu1049   2.007       .  S
O1044      C1870   1.278       .  A
O1045     Cu1050   1.999       .  S
O1045      C1054   1.277       .  A
O1046     Cu1050   2.000       .  S
O1046      C1053   1.276   1_455  A
O1047     Cu1050   2.005       .  S
O1047      C1052   1.278       .  A
O1048     Cu2682   2.000       .  S
O1048      C1051   1.277       .  A
Cu1049     O2674   1.998       .  S
Cu1049    Cu1866   2.372   1_565  S
Cu1050     O2680   2.000   1_455  S
Cu1050    Cu1865   2.372   1_455  S
C1051      C1244   1.474       .  S
C1052      C1254   1.483       .  S
C1053      O1859   1.276       .  A
C1053      C2896   1.461       .  S
C1054      O1860   1.278   1_455  A
C1054      C1484   1.483       .  S
O1055     Cu1063   2.007       .  S
O1055      C2697   1.278   1_455  A
O1056     Cu1063   2.013       .  S
O1056      C2698   1.278       .  A
O1057     Cu1063   2.006       .  S
O1057      C1067   1.278       .  A
O1058     Cu2695   1.999       .  S
O1058      C1068   1.276       .  A
O1059     Cu1064   2.007       .  S
O1059      C1068   1.278       .  A
O1060     Cu2696   2.002   1_455  S
O1060      C1067   1.277       .  A
O1061     Cu1064   2.001       .  S
O1061      C1066   1.277       .  A
O1062     Cu1064   2.008       .  S
O1062      C1065   1.278       .  A
Cu1063     O2690   1.999   1_455  S
Cu1063    Cu2696   2.370   1_455  S
Cu1064     O2692   2.002       .  S
Cu1064    Cu2695   2.370       .  S
C1065      O2687   1.278       .  A
C1065      C1454   1.486       .  S
C1066      O2688   1.278       .  A
C1066      C1234   1.472       .  S
C1067      C1227   1.487       .  S
C1068      C1214   1.470       .  S
O1069     Cu1077   1.999       .  S
O1070     Cu1077   2.013       .  S
O1071     Cu1077   2.015       .  S
O1072     Cu1077   2.009       .  S
O1073     Cu1078   2.005       .  S
O1073      C1082   1.277       .  A
O1074     Cu1078   2.002       .  S
O1074      C1081   1.277       .  A
O1075     Cu1078   1.989       .  S
O1075      C1080   1.276       .  A
O1076     Cu1078   2.003       .  S
O1076      C1079   1.277       .  A
C1079      C1247   1.475       .  S
C1080      C1257   1.484       .  S
C1081      C1444   1.474       .  S
C1082      C1204   1.468       .  S
O1083     Cu1091   2.006       .  S
O1083      C1093   1.278       .  A
O1084     Cu1091   2.010       .  S
O1084      C1094   1.278       .  A
O1085     Cu1091   2.005       .  S
O1085      C1095   1.277       .  A
O1086     Cu1091   1.999       .  S
O1086      C1096   1.277       .  A
O1087     Cu1092   2.008       .  S
O1087      C1096   1.278       .  A
O1088     Cu1092   2.001       .  S
O1088      C1095   1.277       .  A
O1089     Cu1092   1.994       .  S
O1089      C1094   1.275       .  A
O1090     Cu1092   2.000       .  S
O1090      C1093   1.277       .  A
Cu1091    Cu1092   2.372       .  S
C1093      C1437   1.484       .  S
C1094      C1194   1.467       .  S
C1095      C1217   1.469       .  S
C1096      C1224   1.486       .  S
O1097     Cu2737   2.003       .  S
O1097      C1107   1.277       .  A
O1098      C1108   1.278       .  A
O1099     Cu1105   1.997       .  S
O1099      C1925   1.276   1_455  A
O1100     Cu1105   1.995       .  S
O1100      C1926   1.276   1_455  A
O1101     Cu1106   2.006       .  S
O1101      C1110   1.278       .  A
O1102     Cu1106   2.007       .  S
O1102      C1109   1.278       .  A
O1103     Cu2738   2.009   1_455  S
O1103      C1108   1.278       .  A
O1104      C1107   1.279       .  A
Cu1105     O2729   2.003   1_455  S
Cu1105    Cu1922   2.367   1_465  S
Cu1106     O2735   2.009       .  S
Cu1106    Cu1921   2.367       .  S
C1107      C1174   1.489       .  S
C1108      C1184   1.487       .  S
C1109      O1915   1.276       .  A
C1109      C1344   1.475       .  S
C1110      O1916   1.276       .  A
C1110      C1267   1.483       .  S
O1111     Cu1119   2.001       .  S
O1111      C2753   1.277   1_455  A
O1112     Cu1119   2.002       .  S
O1112      C2754   1.277   1_455  A
O1113     Cu1119   2.005       .  S
O1113      C1123   1.278       .  A
O1114     Cu2751   2.007       .  S
O1114      C1124   1.278       .  A
O1115     Cu1120   2.010       .  S
O1115      C1124   1.278       .  A
O1116     Cu2752   2.008   1_455  S
O1116      C1123   1.278       .  A
O1117     Cu1120   2.012       .  S
O1117      C1122   1.278       .  A
O1118     Cu1120   2.010       .  S
O1118      C1121   1.278       .  A
Cu1119     O2746   2.007   1_455  S
Cu1119    Cu2752   2.365   1_455  S
Cu1120     O2748   2.008       .  S
Cu1120    Cu2751   2.365       .  S
C1121      O2743   1.277       .  A
C1121      C1317   1.488       .  S
C1122      O2744   1.277       .  A
C1122      C1237   1.487       .  S
C1123      C1164   1.488       .  S
C1124      C1154   1.489       .  S
O1125     Cu1133   2.014       .  S
O1125      C1135   1.279       .  A
O1126      C1136   1.278       .  A
O1127     Cu1133   2.005       .  S
O1128     Cu1133   2.005       .  S
O1129     Cu1134   2.010       .  S
O1129      C1138   1.278       .  A
O1130     Cu1134   2.008       .  S
O1130      C1137   1.278       .  A
O1131     Cu1134   2.009       .  S
O1131      C1136   1.278       .  A
O1132      C1135   1.277       .  A
C1135      C1167   1.489       .  S
C1136      C1157   1.489       .  S
C1137      C1284   1.471       .  S
C1138      C1207   1.488       .  S
O1139     Cu1147   2.003       .  S
O1139      C1149   1.277       .  A
O1140     Cu1147   2.004       .  S
O1140      C1150   1.278       .  A
O1141     Cu1147   2.011       .  S
O1141      C1151   1.279       .  A
O1142     Cu1147   2.010       .  S
O1142      C1152   1.278       .  A
O1143     Cu1148   2.004       .  S
O1143      C1152   1.277       .  A
O1144     Cu1148   2.006       .  S
O1144      C1151   1.278       .  A
O1145     Cu1148   2.001       .  S
O1145      C1150   1.277       .  A
O1146     Cu1148   2.001       .  S
O1146      C1149   1.277       .  A
Cu1147    Cu1148   2.366       .  S
C1149      C1274   1.484       .  S
C1150      C1197   1.485       .  S
C1151      C1177   1.489       .  S
C1152      C1187   1.486       .  S
C1153      C1154   1.410       .  A
C1153      C1158   1.398       .  A
C1153      F1160   1.358       .  S
C1154      C1155   1.410       .  A
C1155      C1156   1.399       .  A
C1155      F1162   1.358       .  S
C1156      C1157   1.410       .  A
C1156      F1161   1.358       .  S
C1157      C1158   1.410       .  A
C1158      F1159   1.358       .  S
C1163      C1164   1.410       .  A
C1163      C1168   1.398       .  A
C1163      F1170   1.358       .  S
C1164      C1165   1.410       .  A
C1165      C1166   1.398       .  A
C1165      F1172   1.358       .  S
C1166      C1167   1.409       .  A
C1166      F1171   1.358       .  S
C1167      C1168   1.411       .  A
C1168      F1169   1.358       .  S
C1173      C1174   1.410       .  A
C1173      C1178   1.398       .  A
C1173      F1180   1.358       .  S
C1174      C1175   1.410       .  A
C1175      C1176   1.400       .  A
C1175      F1182   1.358       .  S
C1176      C1177   1.411       .  A
C1176      F1181   1.358       .  S
C1177      C1178   1.409       .  A
C1178      F1179   1.358       .  S
C1183      C1184   1.410       .  A
C1183      C1188   1.399       .  A
C1183      F1190   1.358       .  S
C1184      C1185   1.409       .  A
C1185      C1186   1.398       .  A
C1185      F1192   1.358       .  S
C1186      C1187   1.409       .  A
C1186      F1191   1.358       .  S
C1187      C1188   1.409       .  A
C1188      F1189   1.358       .  S
C1193      C1194   1.402       .  A
C1193      C1198   1.397       .  A
C1193      F1200   1.358       .  S
C1194      C1195   1.401       .  A
C1195      C1196   1.397       .  A
C1195      F1202   1.358       .  S
C1196      C1197   1.412       .  A
C1196      F1201   1.358       .  S
C1197      C1198   1.412       .  A
C1198      F1199   1.358       .  S
C1203      C1204   1.402       .  A
C1203      C1208   1.399       .  A
C1203      F1210   1.358       .  S
C1205      C1206   1.398       .  A
C1205      F1212   1.358       .  S
C1206      F1211   1.358       .  S
C1207      C1208   1.413       .  A
C1208      F1209   1.358       .  S
C1213      C1214   1.404       .  A
C1213      C1218   1.397       .  A
C1213      F1220   1.358       .  S
C1214      C1215   1.406       .  A
C1215      C1216   1.398       .  A
C1215      F1222   1.358       .  S
C1216      C1217   1.405       .  A
C1216      F1221   1.358       .  S
C1217      C1218   1.405       .  A
C1218      F1219   1.358       .  S
C1223      C1224   1.410       .  A
C1223      C1228   1.397       .  A
C1223      F1230   1.358       .  S
C1224      C1225   1.409       .  A
C1225      C1226   1.398       .  A
C1225      F1232   1.358       .  S
C1226      C1227   1.410       .  A
C1226      F1231   1.358       .  S
C1227      C1228   1.409       .  A
C1228      F1229   1.358       .  S
C1233      C2866   1.403       .  A
C1233      C1238   1.397       .  A
C1233      F1240   1.358       .  S
C1234      C2865   1.403       .  A
C1234      C1235   1.403       .  A
C1235      C1236   1.400       .  A
C1235      F1242   1.358       .  S
C1236      C1237   1.412       .  A
C1236      F1241   1.358       .  S
C1237      C2870   1.412       .  A
C1238      C2869   1.412   1_455  A
C1238      F1239   1.358       .  S
C1243      C1244   1.406       .  A
C1243      C1248   1.397       .  A
C1243      F1250   1.358       .  S
C1245      C1246   1.396       .  A
C1245      F1252   1.358       .  S
C1246      F1251   1.358       .  S
C1247      C1248   1.407       .  A
C1248      F1249   1.358       .  S
C1253      C1254   1.408       .  A
C1253      C1258   1.395       .  A
C1253      F1260   1.358       .  S
C1255      C1256   1.398       .  A
C1255      F1262   1.358       .  S
C1256      F1261   1.358       .  S
C1257      C1258   1.410       .  A
C1258      F1259   1.358       .  S
C1263      C2896   1.399   1_455  A
C1263      C1268   1.396       .  A
C1263      F1270   1.358       .  S
C1264      C2685   1.461       .  S
C1264      C2895   1.399       .  A
C1265      C1266   1.398       .  A
C1265      F1272   1.358       .  S
C1266      F1271   1.358       .  S
C1267      C2900   1.413       .  A
C1268      C2899   1.413   1_455  A
C1268      F1269   1.358       .  S
C1273      C1274   1.409       .  A
C1273      C1278   1.397       .  A
C1273      F1280   1.358       .  S
C1274      C1275   1.409       .  A
C1275      C1276   1.397       .  A
C1275      F1282   1.358       .  S
C1276      C1277   1.409       .  A
C1276      F1281   1.358       .  S
C1277      C1278   1.409       .  A
C1278      F1279   1.358       .  S
C1283      C1288   1.398       .  A
C1283      F1290   1.358       .  S
C1284      C1285   1.404       .  A
C1285      C1286   1.398       .  A
C1285      F1292   1.358       .  S
C1286      C1287   1.405       .  A
C1286      F1291   1.358       .  S
C1288      F1289   1.358       .  S
C1293      C1294   1.410       .  A
C1293      C1298   1.398       .  A
C1293      F1300   1.358       .  S
C1294      C1295   1.410       .  A
C1295      C1296   1.398       .  A
C1295      F1302   1.358       .  S
C1296      C1297   1.409       .  A
C1296      F1301   1.358       .  S
C1297      C1298   1.411       .  A
C1298      F1299   1.358       .  S
C1303      C1304   1.410       .  A
C1303      C1308   1.398       .  A
C1303      F1310   1.358       .  S
C1304      C1305   1.410       .  A
C1305      C1306   1.398       .  A
C1305      F1312   1.358       .  S
C1306      C1307   1.410       .  A
C1306      F1311   1.358       .  S
C1307      C1308   1.410       .  A
C1308      F1309   1.358       .  S
C1313      C2946   1.410       .  A
C1313      C1318   1.398       .  A
C1313      F1320   1.358       .  S
C1314      C2945   1.410       .  A
C1314      C1315   1.409       .  A
C1315      C1316   1.398       .  A
C1315      F1322   1.358       .  S
C1316      C1317   1.410       .  A
C1316      F1321   1.358       .  S
C1317      C2950   1.409       .  A
C1318      C2949   1.409       .  A
C1318      F1319   1.358       .  S
C1323      C1324   1.411       .  A
C1323      C1328   1.399       .  A
C1323      F1330   1.358       .  S
C1324      C1325   1.410       .  A
C1325      C1326   1.399       .  A
C1325      F1332   1.358       .  S
C1326      C1327   1.411       .  A
C1326      F1331   1.358       .  S
C1327      C1328   1.410       .  A
C1328      F1329   1.358       .  S
C1333      C1334   1.410       .  A
C1333      C1338   1.397       .  A
C1333      F1340   1.358       .  S
C1334      C1335   1.410       .  A
C1335      C1336   1.399       .  A
C1335      F1342   1.358       .  S
C1336      C1337   1.411       .  A
C1336      F1341   1.358       .  S
C1337      C1338   1.409       .  A
C1338      F1339   1.358       .  S
C1343      C1348   1.396       .  A
C1343      F1350   1.358       .  S
C1344      C2977   1.407       .  A
C1345      C2976   1.407       .  A
C1345      C1346   1.397       .  A
C1345      F1352   1.358       .  S
C1346      C2979   1.406       .  A
C1346      F1351   1.358       .  S
C1347      C2627   1.476       .  S
C1347      C2978   1.406       .  A
C1348      F1349   1.358       .  S
C1353      C1354   1.407       .  A
C1353      C1358   1.398   1_556  A
C1353      F1360   1.358       .  S
C1354      C1355   1.406       .  A
C1355      C1356   1.396   1_556  A
C1355      F1362   1.358       .  S
C1356      C1357   1.407       .  A
C1356      F1361   1.358       .  S
C1357      C1358   1.408       .  A
C1358      F1359   1.358       .  S
C1363      C1364   1.409       .  A
C1363      C1368   1.397       .  A
C1363      F1370   1.358       .  S
C1364      C1365   1.410       .  A
C1365      C1366   1.398       .  A
C1365      F1372   1.358       .  S
C1366      C1367   1.409       .  A
C1366      F1371   1.358       .  S
C1367      C1368   1.410       .  A
C1368      F1369   1.358       .  S
C1373      C1374   1.410       .  A
C1373      C1378   1.399       .  A
C1373      F1380   1.358       .  S
C1374      C1375   1.410       .  A
C1375      C1376   1.399       .  A
C1375      F1382   1.358       .  S
C1376      C1377   1.410       .  A
C1376      F1381   1.358       .  S
C1377      C1378   1.410       .  A
C1378      F1379   1.358       .  S
C1383      C1384   1.413       .  A
C1383      C1388   1.398   1_556  A
C1383      F1390   1.358       .  S
C1385      C1386   1.399   1_556  A
C1385      F1392   1.358       .  S
C1386      C1387   1.401       .  A
C1386      F1391   1.358       .  S
C1388      F1389   1.358       .  S
C1393      C3026   1.411       .  A
C1393      C1398   1.398   1_554  A
C1393      F1400   1.358       .  S
C1394      C3025   1.411       .  A
C1394      C1395   1.411       .  A
C1395      C1396   1.397   1_554  A
C1395      F1402   1.358       .  S
C1396      C1397   1.400       .  A
C1396      F1401   1.358       .  S
C1397      C3030   1.400       .  A
C1398      C3029   1.400       .  A
C1398      F1399   1.358       .  S
C1403      C3036   1.410       .  A
C1403      C1408   1.399       .  A
C1403      F1410   1.358       .  S
C1404      C3035   1.410       .  A
C1404      C1405   1.410       .  A
C1405      C1406   1.399       .  A
C1405      F1412   1.358       .  S
C1406      C1407   1.410       .  A
C1406      F1411   1.358       .  S
C1407      C3040   1.410       .  A
C1408      C3039   1.410       .  A
C1408      F1409   1.358       .  S
C1413      C3046   1.410       .  A
C1413      C1418   1.398       .  A
C1413      F1420   1.358       .  S
C1414      C3045   1.410       .  A
C1414      C1415   1.410       .  A
C1415      C1416   1.398       .  A
C1415      F1422   1.358       .  S
C1416      C1417   1.410       .  A
C1416      F1421   1.358       .  S
C1417      C3050   1.410       .  A
C1418      C3049   1.410       .  A
C1418      F1419   1.358       .  S
C1423      C2240   1.406       .  A
C1423      C1428   1.398   1_554  A
C1423      F1430   1.358       .  S
C1424      C2239   1.406   1_545  A
C1424      C1425   1.406       .  A
C1425      C1426   1.398   1_554  A
C1425      F1432   1.358       .  S
C1426      F1431   1.358       .  S
C1427      C2628   1.481       .  S
C1427      C3060   1.408       .  A
C1428      C3059   1.408       .  A
C1428      F1429   1.358       .  S
C1433      C1434   1.408       .  A
C1433      C1438   1.396       .  A
C1433      F1440   1.358       .  S
C1434      C1435   1.410       .  A
C1435      C1436   1.397       .  A
C1435      F1442   1.358       .  S
C1436      C1437   1.409       .  A
C1436      F1441   1.358       .  S
C1437      C1438   1.410       .  A
C1438      F1439   1.358       .  S
C1443      C1444   1.406       .  A
C1443      C1448   1.397       .  A
C1443      F1450   1.358       .  S
C1445      C1446   1.401       .  A
C1445      F1452   1.358       .  S
C1446      F1451   1.358       .  S
C1447      C1448   1.404       .  A
C1448      F1449   1.358       .  S
C1453      C1454   1.410       .  A
C1453      C1458   1.400       .  A
C1453      F1460   1.358       .  S
C1454      C3087   1.408       .  A
C1455      C3086   1.408   1_455  A
C1455      C1456   1.397       .  A
C1455      F1462   1.358       .  S
C1456      C3089   1.410   1_455  A
C1456      F1461   1.358       .  S
C1457      C3088   1.410       .  A
C1457      C1458   1.409       .  A
C1458      F1459   1.358       .  S
C1463      C1464   1.407       .  A
C1463      C1468   1.396       .  A
C1463      F1470   1.358       .  S
C1464      C1465   1.407       .  A
C1465      C1466   1.396       .  A
C1465      F1472   1.358       .  S
C1466      C1467   1.407       .  A
C1466      F1471   1.358       .  S
C1467      C1468   1.407       .  A
C1468      F1469   1.358       .  S
C1473      C1474   1.409       .  A
C1473      C1478   1.396       .  A
C1473      F1480   1.358       .  S
C1474      C1475   1.409       .  A
C1475      C1476   1.397       .  A
C1475      F1482   1.358       .  S
C1476      C1477   1.409       .  A
C1476      F1481   1.358       .  S
C1477      C1478   1.409       .  A
C1478      F1479   1.358       .  S
C1483      C1484   1.409       .  A
C1483      C1488   1.397       .  A
C1483      F1490   1.358       .  S
C1484      C2301   1.408   1_455  A
C1485      C2300   1.409       .  A
C1485      C1486   1.397       .  A
C1485      F1492   1.358       .  S
C1486      C2303   1.409   1_565  A
C1486      F1491   1.358       .  S
C1487      C2302   1.408   1_455  A
C1487      C1488   1.408       .  A
C1488      F1489   1.358       .  S
C1493      C1498   1.397       .  A
C1493      F1500   1.358       .  S
C1494      C1495   1.408       .  A
C1495      C1496   1.397       .  A
C1495      F1502   1.358       .  S
C1496      C1497   1.410       .  A
C1496      F1501   1.358       .  S
C1498      F1499   1.358       .  S
C1503      C1504   1.406       .  A
C1503      C1508   1.398       .  A
C1503      F1510   1.358       .  S
C1505      C1506   1.398       .  A
C1505      F1512   1.358       .  S
C1506      F1511   1.358       .  S
C1507      C1508   1.406       .  A
C1508      F1509   1.358       .  S
C1513      C1514   1.409       .  A
C1513      C1518   1.397       .  A
C1513      F1520   1.358       .  S
C1514      C1515   1.409       .  A
C1515      C1516   1.396       .  A
C1515      F1522   1.358       .  S
C1516      C1517   1.409       .  A
C1516      F1521   1.358       .  S
C1517      C1518   1.409       .  A
C1518      F1519   1.358       .  S
C1523      C1524   1.405       .  A
C1523      C1528   1.396       .  A
C1523      F1530   1.358       .  S
C1524      C1525   1.406       .  A
C1525      C1526   1.397       .  A
C1525      F1532   1.358       .  S
C1526      C1527   1.408       .  A
C1526      F1531   1.358       .  S
C1527      C1528   1.408       .  A
C1528      F1529   1.358       .  S
C1533      C1534   1.411       .  A
C1533      C1538   1.398       .  A
C1533      F1540   1.358       .  S
C1534      C1535   1.409       .  A
C1535      C1536   1.398       .  A
C1535      F1542   1.358       .  S
C1536      C1537   1.411       .  A
C1536      F1541   1.358       .  S
C1537      C1538   1.409       .  A
C1538      F1539   1.358       .  S
C1543      C1544   1.411       .  A
C1543      C1548   1.398       .  A
C1543      F1550   1.358       .  S
C1544      C1545   1.409       .  A
C1545      C1546   1.398       .  A
C1545      F1552   1.358       .  S
C1546      C1547   1.411       .  A
C1546      F1551   1.358       .  S
C1547      C1548   1.409       .  A
C1548      F1549   1.358       .  S
C1553      C1554   1.409       .  A
C1553      C1558   1.398       .  A
C1553      F1560   1.358       .  S
C1555      C1556   1.399       .  A
C1555      F1562   1.358       .  S
C1556      F1561   1.358       .  S
C1557      C1558   1.409   1_565  A
C1558      F1559   1.358       .  S
C1563      C1568   1.402       .  A
C1563      F1570   1.358       .  S
C1564      C1565   1.412   1_545  A
C1565      C1566   1.397       .  A
C1565      F1572   1.358       .  S
C1566      F1571   1.358       .  S
C1567      C1568   1.402       .  A
C1568      F1569   1.358       .  S
C1573      C3206   1.406       .  A
C1573      C1578   1.400       .  A
C1573      F1580   1.358       .  S
C1574      C3205   1.406       .  A
C1574      C1575   1.405       .  A
C1575      C1576   1.396       .  A
C1575      F1582   1.358       .  S
C1576      C1577   1.404       .  A
C1576      F1581   1.358       .  S
C1577      C2588   1.472       .  S
C1577      C3210   1.407       .  A
C1578      C3209   1.407       .  A
C1578      F1579   1.358       .  S
C1583      C3216   1.412   1_655  A
C1583      C1588   1.399       .  A
C1583      F1590   1.358       .  S
C1584      C3215   1.412       .  A
C1584      C1585   1.411       .  A
C1585      C1586   1.398       .  A
C1585      F1592   1.358       .  S
C1586      C1587   1.400       .  A
C1586      F1591   1.358       .  S
C1587      C3220   1.400       .  A
C1588      C3219   1.400   1_655  A
C1588      F1589   1.358       .  S
C1593      C1594   1.409       .  A
C1593      C1598   1.397       .  A
C1593      F1600   1.358       .  S
C1594      C2461   1.489       .  S
C1594      C3227   1.411       .  A
C1595      C3226   1.411       .  A
C1595      C1596   1.402       .  A
C1595      F1602   1.358       .  S
C1596      C3229   1.410       .  A
C1596      F1601   1.358       .  S
C1597      C3228   1.410       .  A
C1597      C1598   1.410       .  A
C1598      F1599   1.358       .  S
C1603      C1604   1.410       .  A
C1603      C1608   1.399       .  A
C1603      F1610   1.358       .  S
C1604      C3237   1.410       .  A
C1605      C3236   1.410       .  A
C1605      C1606   1.396       .  A
C1605      F1612   1.358       .  S
C1606      C3239   1.409       .  A
C1606      F1611   1.358       .  S
C1607      C2462   1.487       .  S
C1607      C3238   1.409       .  A
C1607      C1608   1.410       .  A
C1608      F1609   1.358       .  S
C1613      C2430   1.410       .  A
C1613      C1618   1.398       .  A
C1613      F1620   1.358       .  S
C1614      C2429   1.410       .  A
C1614      C1615   1.409   1_545  A
C1615      C1616   1.398       .  A
C1615      F1622   1.358       .  S
C1616      C1617   1.410   1_565  A
C1616      F1621   1.358       .  S
C1617      C2434   1.409       .  A
C1618      C2433   1.409       .  A
C1618      F1619   1.358       .  S
C1623      C2440   1.407   1_565  A
C1623      C1628   1.396       .  A
C1623      F1630   1.358       .  S
C1624      C2439   1.408   1_455  A
C1624      C1625   1.407       .  A
C1625      C1626   1.399       .  A
C1625      F1632   1.358       .  S
C1626      C1627   1.407       .  A
C1626      F1631   1.358       .  S
C1627      C2444   1.406   1_455  A
C1628      C2443   1.407   1_565  A
C1628      F1629   1.358       .  S
O1633     Cu1641   2.008       .  S
O1634     Cu1641   2.011       .  S
O1634      C1644   1.278       .  A
O1635     Cu2457   2.009       .  S
O1635      C1645   1.278       .  A
O1636     Cu1641   2.003       .  S
O1636      C1646   1.277       .  A
O1637     Cu2458   2.013   1_545  S
O1638     Cu1642   2.006       .  S
O1639     Cu1642   2.003       .  S
O1640     Cu1642   2.004       .  S
O1640      C1643   1.277   1_655  A
Cu1641     O2451   2.011   1_545  S
Cu1642     O2453   2.009       .  S
C1643      C2433   1.487       .  S
C1644      C2443   1.479       .  S
O1647     Cu1655   2.007       .  S
O1647      C1657   1.278   1_655  A
O1648     Cu1655   2.009       .  S
O1648      C1658   1.278   1_655  A
O1649     Cu1655   2.000       .  S
O1649      C1659   1.276   1_655  A
O1650     Cu1655   2.001       .  S
O1650      C1660   1.276   1_655  A
O1651     Cu1656   2.007       .  S
O1652     Cu1656   2.008       .  S
O1653     Cu1656   2.006       .  S
O1654     Cu1656   2.010       .  S
C1657      C2413   1.490       .  S
C1658      C2420   1.489       .  S
C1659      C2400   1.463       .  S
C1660      C2390   1.471       .  S
O1661     Cu1669   2.008       .  S
O1661      C2487   1.278       .  A
O1662     Cu1669   2.007       .  S
O1662      C2488   1.278       .  A
O1663     Cu1669   2.012       .  S
O1663      C1673   1.279       .  A
O1664     Cu2485   2.014       .  S
O1664      C1674   1.279       .  A
O1665     Cu1670   2.001       .  S
O1665      C1674   1.277       .  A
O1666     Cu2486   2.002   1_545  S
O1666      C1673   1.277       .  A
O1667     Cu1670   2.008       .  S
O1667      C1672   1.278       .  A
O1668     Cu1670   2.005       .  S
O1668      C1671   1.278       .  A
Cu1669     O2480   2.014   1_545  S
Cu1669    Cu2486   2.365   1_545  S
Cu1670     O2482   2.001       .  S
Cu1670    Cu2485   2.364       .  S
C1671      O2477   1.278       .  A
C1671      C2380   1.490       .  S
C1672      O2478   1.278       .  A
C1672      C2370   1.488       .  S
C1673      C2360   1.488       .  S
C1674      C2353   1.489       .  S
O1675     Cu1683   2.000       .  S
O1675      C1685   1.277       .  A
O1676     Cu1683   1.999       .  S
O1676      C1686   1.277       .  A
O1677     Cu1683   2.013       .  S
O1677      C1687   1.279       .  A
O1678     Cu1683   2.013       .  S
O1678      C1688   1.279       .  A
O1679     Cu1684   2.004       .  S
O1679      C1688   1.277       .  A
O1680     Cu1684   2.001       .  S
O1680      C1687   1.277       .  A
O1681     Cu1684   1.999       .  S
O1681      C1686   1.277       .  A
O1682     Cu1684   2.001       .  S
O1682      C1685   1.277       .  A
Cu1683    Cu1684   2.367       .  S
C1685      C2333   1.483       .  S
C1686      C2340   1.474       .  S
C1687      C2350   1.489       .  S
C1688      C2363   1.489       .  S
O1689     Cu1697   2.004       .  S
O1689      C1699   1.278       .  A
O1690     Cu1697   2.011       .  S
O1690      C1700   1.278       .  A
O1691      C1701   1.278       .  A
O1692     Cu1697   2.004       .  S
O1692      C1702   1.277       .  A
O1693      C2518   1.277       .  A
O1694     Cu1698   2.000       .  S
O1694      C2517   1.277       .  A
O1695     Cu1698   1.996       .  S
O1696     Cu1698   2.000       .  S
C1699      C2303   1.484       .  S
C1700      C2440   1.479       .  S
C1701      O2510   1.277   1_545  A
C1701      C2310   1.483       .  S
C1702      O2509   1.277   1_545  A
C1702      C2323   1.472       .  S
O1703     Cu1711   2.003       .  S
O1704     Cu1711   2.003       .  S
O1705      C1715   1.277       .  A
O1706     Cu1711   2.002       .  S
O1706      C1716   1.277       .  A
O1707      C1716   1.277       .  A
O1708     Cu1712   2.000       .  S
O1708      C1715   1.277       .  A
O1709     Cu1712   2.007       .  S
O1709      C1714   1.278       .  A
O1710     Cu1712   2.013       .  S
O1710      C1713   1.279       .  A
C1713      C2273   1.487       .  S
C1714      C2403   1.484   1_655  S
C1715      C2283   1.475       .  S
C1716      C2290   1.484       .  S
O1717     Cu1725   2.001       .  S
O1717      C1727   1.277       .  A
O1718     Cu1725   1.999       .  S
O1718      C1728   1.277       .  A
O1719     Cu1725   2.016       .  S
O1719      C1729   1.278       .  A
O1720     Cu1725   2.010       .  S
O1720      C1730   1.278   1_545  A
O1721     Cu1726   2.007       .  S
O1721      C2546   1.277       .  A
O1722     Cu1726   2.000       .  S
O1722      C2545   1.276       .  A
O1723     Cu1726   2.006       .  S
O1723      C2544   1.278       .  A
O1724     Cu1726   2.006       .  S
O1724      C2543   1.278       .  A
Cu1725    Cu2542   2.374   1_545  S
Cu1726    Cu2541   2.373       .  S
C1727      O2540   1.278   1_545  A
C1727      C2320   1.472       .  S
C1728      O2539   1.278   1_545  A
C1728      C2313   1.484       .  S
C1729      O2538   1.276   1_545  A
C1729      C2383   1.468       .  S
C1730      O2537   1.277       .  A
C1730      C2263   1.475       .  S
O1731     Cu1739   2.001       .  S
O1731      C1741   1.277       .  A
O1732     Cu1739   2.005       .  S
O1732      C1742   1.278       .  A
O1733     Cu1739   1.997       .  S
O1733      C1743   1.277       .  A
O1734     Cu1739   1.999       .  S
O1734      C1744   1.277       .  A
O1735     Cu1740   2.000       .  S
O1735      C1744   1.277       .  A
O1736     Cu1740   2.004       .  S
O1736      C1743   1.278       .  A
O1737     Cu1740   2.000       .  S
O1737      C1742   1.277       .  A
O1738     Cu1740   1.999       .  S
O1738      C1741   1.277       .  A
Cu1739    Cu1740   2.369       .  S
C1741      C2343   1.476       .  S
C1742      C2250   1.485       .  S
C1743      C2293   1.484       .  S
C1744      C2280   1.475       .  S
O1745     Cu1753   2.008       .  S
O1745      C1755   1.278   1_655  A
O1746     Cu1753   2.009       .  S
O1746      C1756   1.278   1_655  A
O1747     Cu2569   2.005   1_545  S
O1747      C1757   1.278   1_655  A
O1748     Cu1753   2.012       .  S
O1748      C1758   1.279   1_655  A
O1749     Cu2570   2.008       .  S
O1750     Cu1754   2.008       .  S
O1751     Cu1754   2.001       .  S
O1752     Cu1754   1.999       .  S
Cu1753     O2563   2.005       .  S
Cu1754     O2565   2.008   1_545  S
C1755      C2240   1.477       .  S
C1756      C2430   1.488       .  S
C1757      C2233   1.488       .  S
C1758      C2220   1.489       .  S
O1759     Cu1767   2.010       .  S
O1759      C1769   1.278   1_655  A
O1760     Cu1767   2.006       .  S
O1760      C1770   1.278   1_655  A
O1761     Cu1767   2.002       .  S
O1761      C1771   1.277   1_655  A
O1762     Cu1767   2.003       .  S
O1763     Cu1768   2.005       .  S
O1763      C1772   1.277       .  A
O1764     Cu1768   2.003       .  S
O1765     Cu1768   2.013       .  S
O1766     Cu1768   2.005       .  S
C1769      C2230   1.488       .  S
C1770      C2223   1.489       .  S
C1771      C2210   1.483   1_455  S
O1773     Cu1781   2.009       .  S
O1773      C1783   1.278       .  A
O1774     Cu1781   2.009       .  S
O1774      C1784   1.277       .  A
O1775     Cu1781   2.012       .  S
O1775      C1785   1.279       .  A
O1776     Cu2597   2.006   1_545  S
O1776      C1786   1.278       .  A
O1777     Cu1782   2.011       .  S
O1777      C1786   1.279       .  A
O1778     Cu2598   2.003       .  S
O1778      C1785   1.277       .  A
O1779     Cu1782   2.005       .  S
O1779      C2600   1.276   1_545  A
O1780     Cu1782   2.006       .  S
O1780      C2599   1.278   1_545  A
Cu1781     O2592   2.008       .  S
Cu1781    Cu2598   2.368       .  S
Cu1782     O2594   2.004   1_545  S
Cu1782    Cu2597   2.369   1_545  S
C1783      O2596   1.278       .  A
C1783      C2373   1.488       .  S
C1784      O2595   1.277       .  A
C1784      C2203   1.467       .  S
C1785      C2180   1.489       .  S
C1786      C2193   1.490       .  S
O1787     Cu1795   2.008       .  S
O1787      C1797   1.278       .  A
O1788     Cu1795   2.010       .  S
O1788      C1798   1.278       .  A
O1789     Cu1795   2.000       .  S
O1789      C1799   1.277       .  A
O1790     Cu1795   2.001       .  S
O1790      C1800   1.277       .  A
O1791     Cu1796   1.999       .  S
O1791      C1800   1.277       .  A
O1792     Cu1796   2.001       .  S
O1792      C1799   1.277       .  A
O1793     Cu1796   2.009       .  S
O1793      C1798   1.278       .  A
O1794     Cu1796   2.005       .  S
O1794      C1797   1.278       .  A
Cu1795    Cu1796   2.365       .  S
C1797      C2183   1.488       .  S
C1798      C2190   1.490       .  S
C1799      C2173   1.483       .  S
C1800      C2330   1.483       .  S
O1801     Cu1809   1.998       .  S
O1802     Cu1809   2.001       .  S
O1803      C1813   1.278       .  A
O1804     Cu2625   2.008       .  S
O1804      C1814   1.278       .  A
O1805      C1814   1.278       .  A
O1806     Cu2626   2.010   1_545  S
O1806      C1813   1.278       .  A
O1807     Cu1810   2.007       .  S
O1807      C2628   1.278       .  A
O1808     Cu1810   2.004       .  S
O1808      C2627   1.277       .  A
Cu1809     O2620   2.007   1_545  S
Cu1810     O2622   2.008       .  S
C1811      O2624   1.277       .  A
C1812      O2623   1.278       .  A
C1813      C2150   1.489       .  S
C1814      C2140   1.489       .  S
O1815      C1825   1.278       .  A
O1816     Cu1823   2.005       .  S
O1816      C1826   1.278       .  A
O1817     Cu1823   2.003       .  S
O1818     Cu1823   2.004       .  S
O1819     Cu1824   2.005       .  S
O1819      C1828   1.278       .  A
O1820     Cu1824   2.003       .  S
O1820      C1827   1.276       .  A
O1821      C1826   1.279       .  A
O1822     Cu1824   2.007       .  S
O1822      C1825   1.278       .  A
C1825      C2110   1.490       .  S
C1826      C2120   1.489       .  S
C1827      C2213   1.462       .  S
C1828      C2130   1.487       .  S
O1829     Cu2653   2.007   1_545  S
O1829      C1839   1.278       .  A
O1830     Cu1837   2.008       .  S
O1830      C1840   1.278       .  A
O1831     Cu1837   2.009       .  S
O1831      C2657   1.278       .  A
O1832     Cu1837   2.009       .  S
O1832      C2658   1.278       .  A
O1833     Cu1838   2.005       .  S
O1833      C1842   1.278   1_545  A
O1834     Cu1838   2.006       .  S
O1834      C1841   1.277   1_545  A
O1835     Cu2654   2.005       .  S
O1835      C1840   1.278       .  A
O1836     Cu1838   2.011       .  S
O1836      C1839   1.279       .  A
Cu1837     O2645   2.002       .  S
Cu1837    Cu2654   2.367       .  S
Cu1838     O2651   2.003   1_545  S
Cu1838    Cu2653   2.367   1_545  S
C1839      C2113   1.490       .  S
C1840      C2123   1.489       .  S
C1841      O2647   1.277       .  A
C1841      C2103   1.471       .  S
C1842      O2648   1.278       .  A
C1842      C2200   1.487       .  S
O1843     Cu1851   2.003       .  S
O1843      C1853   1.277       .  A
O1844     Cu1851   2.003       .  S
O1844      C1854   1.277       .  A
O1845     Cu1851   2.015       .  S
O1845      C1855   1.279       .  A
O1846     Cu1851   2.006       .  S
O1846      C1856   1.278       .  A
O1847     Cu1852   2.007       .  S
O1847      C1856   1.278       .  A
O1848     Cu1852   2.004       .  S
O1848      C1855   1.277       .  A
O1849     Cu1852   2.000       .  S
O1849      C1854   1.277       .  A
O1850     Cu1852   2.001       .  S
O1850      C1853   1.277       .  A
Cu1851    Cu1852   2.368       .  S
C1853      C2093   1.485       .  S
C1854      C2170   1.467       .  S
C1855      C2143   1.489       .  S
C1856      C2153   1.489       .  S
O1857     Cu1865   2.002       .  S
O1857      C2683   1.277       .  A
O1858      C2684   1.277       .  A
O1859     Cu1865   2.001       .  S
O1860     Cu1865   2.005       .  S
O1861     Cu1866   1.999       .  S
O1861      C1870   1.277   1_545  A
O1862     Cu1866   2.002       .  S
O1862      C1869   1.276   1_545  A
O1863     Cu1866   2.008       .  S
O1863      C1868   1.279   1_545  A
O1864      C1867   1.277   1_545  A
C1867      O2673   1.277       .  A
C1867      C2060   1.475       .  S
C1868      O2674   1.276       .  A
C1868      C2070   1.482       .  S
C1870      C2300   1.484       .  S
O1871     Cu1879   2.008       .  S
O1872     Cu1879   2.013       .  S
O1873     Cu1879   2.004       .  S
O1873      C1883   1.278       .  A
O1874      C1884   1.276       .  A
O1875     Cu1880   2.008       .  S
O1875      C1884   1.278       .  A
O1876      C1883   1.277       .  A
O1877     Cu1880   2.000       .  S
O1877      C1882   1.277   1_655  A
O1878     Cu1880   2.007       .  S
O1878      C1881   1.278       .  A
C1881      C2270   1.486       .  S
C1882      C2050   1.474       .  S
C1883      C2043   1.487       .  S
C1884      C2030   1.470       .  S
O1885     Cu1893   2.000       .  S
O1885      C2711   1.277       .  A
O1886     Cu1893   2.012       .  S
O1886      C2712   1.279       .  A
O1887     Cu1893   2.012       .  S
O1887      C2713   1.278       .  A
O1888     Cu1893   2.005       .  S
O1888      C2714   1.277       .  A
O1889     Cu1894   2.007       .  S
O1889      C1898   1.277   1_545  A
O1890     Cu1894   2.003       .  S
O1890      C1897   1.277   1_545  A
O1891     Cu1894   1.992       .  S
O1891      C1896   1.276   1_545  A
O1892     Cu1894   2.004       .  S
O1892      C1895   1.278   1_545  A
Cu1893    Cu2710   2.373       .  S
Cu1894    Cu2709   2.373   1_545  S
C1895      O2701   1.277       .  A
C1895      C2063   1.475       .  S
C1896      O2702   1.279       .  A
C1896      C2073   1.483       .  S
C1897      O2703   1.278       .  A
C1897      C2260   1.475       .  S
C1898      O2704   1.278       .  A
C1898      C2020   1.470       .  S
O1899     Cu1907   2.007       .  S
O1899      C1909   1.278       .  A
O1900     Cu1907   2.011       .  S
O1900      C1910   1.278       .  A
O1901     Cu1907   2.003       .  S
O1901      C1911   1.277       .  A
O1902     Cu1907   1.997       .  S
O1902      C1912   1.277       .  A
O1903     Cu1908   2.011       .  S
O1903      C1912   1.279       .  A
O1904     Cu1908   2.003       .  S
O1904      C1911   1.277       .  A
O1905     Cu1908   1.994       .  S
O1905      C1910   1.275       .  A
O1906     Cu1908   2.000       .  S
O1906      C1909   1.277       .  A
Cu1907    Cu1908   2.372       .  S
C1909      C2253   1.486       .  S
C1910      C2010   1.467       .  S
C1911      C2033   1.469       .  S
C1912      C2040   1.487       .  S
O1913      C1923   1.278       .  A
O1914     Cu2737   2.006   1_545  S
O1914      C1924   1.278       .  A
O1915     Cu1921   1.996       .  S
O1916     Cu1921   1.996       .  S
O1917     Cu1922   2.008       .  S
O1917      C1926   1.278   1_545  A
O1918     Cu1922   2.007       .  S
O1918      C1925   1.278   1_545  A
O1919      C1924   1.278       .  A
O1920     Cu2738   2.014       .  S
O1920      C1923   1.279       .  A
Cu1921     O2730   2.006       .  S
Cu1922     O2736   2.014   1_545  S
C1923      C1990   1.490       .  S
C1924      C2000   1.489       .  S
C1925      C2160   1.476       .  S
C1926      C2083   1.484       .  S
O1927     Cu1935   2.005       .  S
O1928     Cu1935   2.004       .  S
O1929     Cu1935   2.004       .  S
O1929      C1939   1.277       .  A
O1930      C1940   1.277       .  A
O1931     Cu1936   2.013       .  S
O1931      C1940   1.279       .  A
O1932      C1939   1.279       .  A
O1933     Cu1936   2.008       .  S
O1933      C1938   1.278       .  A
O1934     Cu1936   2.006       .  S
O1934      C1937   1.278       .  A
C1937      C2133   1.488       .  S
C1938      C2053   1.484       .  S
C1939      C1980   1.489       .  S
C1940      C1970   1.489       .  S
O1941     Cu1949   2.015       .  S
O1941      C1951   1.279       .  A
O1942     Cu2765   2.008   1_545  S
O1942      C1952   1.278       .  A
O1943     Cu1949   2.003       .  S
O1943      C2769   1.277       .  A
O1944     Cu1949   2.002       .  S
O1944      C2770   1.277       .  A
O1945     Cu1950   2.010       .  S
O1945      C1954   1.278   1_545  A
O1946     Cu1950   2.009       .  S
O1946      C1953   1.278   1_545  A
O1947     Cu1950   2.004       .  S
O1947      C1952   1.278       .  A
O1948     Cu2766   2.004       .  S
O1948      C1951   1.278       .  A
Cu1949     O2758   2.007       .  S
Cu1949    Cu2766   2.368       .  S
Cu1950     O2764   2.000   1_545  S
Cu1950    Cu2765   2.367   1_545  S
C1951      C1983   1.489       .  S
C1952      C1973   1.488       .  S
C1953      O2759   1.277       .  A
C1953      C2100   1.471       .  S
C1954      O2760   1.277       .  A
C1954      C2023   1.489       .  S
O1955     Cu1963   2.007       .  S
O1955      C1965   1.278       .  A
O1956     Cu1963   2.008       .  S
O1956      C1966   1.278       .  A
O1957     Cu1963   2.013       .  S
O1957      C1967   1.279       .  A
O1958     Cu1963   2.012       .  S
O1958      C1968   1.278       .  A
O1959     Cu1964   2.005       .  S
O1959      C1968   1.278       .  A
O1960     Cu1964   2.007       .  S
O1960      C1967   1.278       .  A
O1961     Cu1964   1.999       .  S
O1961      C1966   1.277       .  A
O1962     Cu1964   1.999       .  S
O1962      C1965   1.277       .  A
Cu1963    Cu1964   2.365       .  S
C1965      C2090   1.485       .  S
C1966      C2013   1.486       .  S
C1967      C1993   1.491       .  S
C1968      C2003   1.489       .  S
C1969      C1970   1.411       .  A
C1969      C1974   1.399       .  A
C1969      F1976   1.358       .  S
C1970      C1971   1.409       .  A
C1971      C1972   1.398       .  A
C1971      F1978   1.358       .  S
C1972      C1973   1.410       .  A
C1972      F1977   1.358       .  S
C1973      C1974   1.410       .  A
C1974      F1975   1.358       .  S
C1979      C1980   1.409       .  A
C1979      C1984   1.399       .  A
C1979      F1986   1.358       .  S
C1980      C1981   1.410       .  A
C1981      C1982   1.399       .  A
C1981      F1988   1.358       .  S
C1982      C1983   1.409       .  A
C1982      F1987   1.358       .  S
C1983      C1984   1.410       .  A
C1984      F1985   1.358       .  S
C1989      C1990   1.411       .  A
C1989      C1994   1.399       .  A
C1989      F1996   1.358       .  S
C1990      C1991   1.410       .  A
C1991      C1992   1.400       .  A
C1991      F1998   1.358       .  S
C1992      C1993   1.411       .  A
C1992      F1997   1.358       .  S
C1993      C1994   1.410       .  A
C1994      F1995   1.358       .  S
C1999      C2000   1.410       .  A
C1999      C2004   1.399       .  A
C1999      F2006   1.358       .  S
C2000      C2001   1.409       .  A
C2001      C2002   1.398       .  A
C2001      F2008   1.358       .  S
C2002      C2003   1.410       .  A
C2002      F2007   1.358       .  S
C2003      C2004   1.409       .  A
C2004      F2005   1.358       .  S
C2009      C2010   1.402       .  A
C2009      C2014   1.397       .  A
C2009      F2016   1.358       .  S
C2010      C2011   1.400       .  A
C2011      C2012   1.397       .  A
C2011      F2018   1.358       .  S
C2012      C2013   1.413       .  A
C2012      F2017   1.358       .  S
C2013      C2014   1.412       .  A
C2014      F2015   1.358       .  S
C2019      C2020   1.402   1_545  A
C2019      C2024   1.399       .  A
C2019      F2026   1.358       .  S
C2020      C2837   1.401       .  A
C2021      C2836   1.401       .  A
C2021      C2022   1.397       .  A
C2021      F2028   1.358       .  S
C2022      C2839   1.413       .  A
C2022      F2027   1.358       .  S
C2023      C2838   1.413       .  A
C2023      C2024   1.413   1_565  A
C2024      F2025   1.358       .  S
C2029      C2030   1.405       .  A
C2029      C2034   1.397       .  A
C2029      F2036   1.358       .  S
C2030      C2031   1.405       .  A
C2031      C2032   1.397       .  A
C2031      F2038   1.358       .  S
C2032      C2033   1.404       .  A
C2032      F2037   1.358       .  S
C2033      C2034   1.405       .  A
C2034      F2035   1.358       .  S
C2039      C2040   1.410       .  A
C2039      C2044   1.396       .  A
C2039      F2046   1.358       .  S
C2040      C2041   1.409       .  A
C2041      C2042   1.398       .  A
C2041      F2048   1.358       .  S
C2042      C2043   1.410       .  A
C2042      F2047   1.358       .  S
C2043      C2044   1.409       .  A
C2044      F2045   1.358       .  S
C2049      C2054   1.397       .  A
C2049      F2056   1.358       .  S
C2050      C2051   1.404   1_455  A
C2051      C2052   1.399       .  A
C2051      F2058   1.358       .  S
C2052      C2053   1.411       .  A
C2052      F2057   1.358       .  S
C2054      F2055   1.358       .  S
C2059      C2060   1.406   1_545  A
C2059      C2064   1.397       .  A
C2059      F2066   1.358       .  S
C2060      C2877   1.406       .  A
C2061      C2876   1.406       .  A
C2061      C2062   1.396       .  A
C2061      F2068   1.358       .  S
C2062      C2879   1.407       .  A
C2062      F2067   1.358       .  S
C2063      C2878   1.407       .  A
C2063      C2064   1.407   1_565  A
C2064      F2065   1.358       .  S
C2069      C2070   1.407   1_545  A
C2069      C2074   1.396       .  A
C2069      F2076   1.358       .  S
C2070      C2887   1.410       .  A
C2071      C2886   1.410       .  A
C2071      C2072   1.398       .  A
C2071      F2078   1.358       .  S
C2072      C2889   1.409       .  A
C2072      F2077   1.358       .  S
C2073      C2888   1.408       .  A
C2073      C2074   1.410   1_565  A
C2074      F2075   1.358       .  S
C2079      C2084   1.396       .  A
C2079      F2086   1.358       .  S
C2080      C2897   1.401   1_565  A
C2081      C2896   1.400       .  A
C2081      C2082   1.397       .  A
C2081      F2088   1.358       .  S
C2082      C2899   1.412       .  A
C2082      F2087   1.358       .  S
C2083      C2898   1.412   1_565  A
C2084      F2085   1.358       .  S
C2089      C2090   1.409       .  A
C2089      C2094   1.397       .  A
C2089      F2096   1.358       .  S
C2090      C2091   1.410       .  A
C2091      C2092   1.396       .  A
C2091      F2098   1.358       .  S
C2092      C2093   1.409       .  A
C2092      F2097   1.358       .  S
C2093      C2094   1.410       .  A
C2094      F2095   1.358       .  S
C2099      C2916   1.405       .  A
C2099      C2104   1.399       .  A
C2099      F2106   1.358       .  S
C2100      C2915   1.405   1_565  A
C2100      C2101   1.405       .  A
C2101      C2102   1.399       .  A
C2101      F2108   1.358       .  S
C2102      C2103   1.405       .  A
C2102      F2107   1.358       .  S
C2103      C2920   1.405   1_565  A
C2104      C2919   1.405       .  A
C2104      F2105   1.358       .  S
C2109      C2110   1.410       .  A
C2109      C2114   1.399       .  A
C2109      F2116   1.358       .  S
C2110      C2111   1.410       .  A
C2111      C2112   1.399       .  A
C2111      F2118   1.358       .  S
C2112      C2113   1.410       .  A
C2112      F2117   1.358       .  S
C2113      C2114   1.411       .  A
C2114      F2115   1.358       .  S
C2119      C2120   1.410       .  A
C2119      C2124   1.399       .  A
C2119      F2126   1.358       .  S
C2120      C2121   1.410       .  A
C2121      C2122   1.398       .  A
C2121      F2128   1.358       .  S
C2122      C2123   1.410       .  A
C2122      F2127   1.358       .  S
C2123      C2124   1.410       .  A
C2124      F2125   1.358       .  S
C2129      C2134   1.398       .  A
C2129      F2136   1.358       .  S
C2130      C2131   1.410   1_655  A
C2131      C2132   1.397       .  A
C2131      F2138   1.358       .  S
C2132      C2133   1.410   1_455  A
C2132      F2137   1.358       .  S
C2134      F2135   1.358       .  S
C2139      C2140   1.410       .  A
C2139      C2144   1.400       .  A
C2139      F2146   1.358       .  S
C2140      C2141   1.409       .  A
C2141      C2142   1.398       .  A
C2141      F2148   1.358       .  S
C2142      C2143   1.410       .  A
C2142      F2147   1.358       .  S
C2143      C2144   1.409       .  A
C2144      F2145   1.358       .  S
C2149      C2150   1.410       .  A
C2149      C2154   1.397       .  A
C2149      F2156   1.358       .  S
C2150      C2151   1.410       .  A
C2151      C2152   1.399       .  A
C2151      F2158   1.358       .  S
C2152      C2153   1.410       .  A
C2152      F2157   1.358       .  S
C2153      C2154   1.410       .  A
C2154      F2155   1.358       .  S
C2159      C2976   1.406   1_455  A
C2159      C2164   1.397       .  A
C2159      F2166   1.358       .  S
C2160      C2975   1.406   1_665  A
C2161      C2162   1.397       .  A
C2161      F2168   1.358       .  S
C2162      F2167   1.358       .  S
C2163      C2980   1.407   1_565  A
C2164      C2979   1.407   1_455  A
C2164      F2165   1.358       .  S
C2169      C2170   1.402       .  A
C2169      C2174   1.397   1_556  A
C2169      F2176   1.358       .  S
C2170      C2171   1.402       .  A
C2171      C2172   1.396   1_556  A
C2171      F2178   1.358       .  S
C2172      C2173   1.411       .  A
C2172      F2177   1.358       .  S
C2173      C2174   1.412       .  A
C2174      F2175   1.358       .  S
C2179      C2180   1.409       .  A
C2179      C2184   1.398       .  A
C2179      F2186   1.358       .  S
C2180      C2181   1.411       .  A
C2181      C2182   1.399       .  A
C2181      F2188   1.358       .  S
C2182      C2183   1.410       .  A
C2182      F2187   1.358       .  S
C2183      C2184   1.410       .  A
C2184      F2185   1.358       .  S
C2189      C2190   1.410       .  A
C2189      C2194   1.399       .  A
C2189      F2196   1.358       .  S
C2190      C2191   1.410       .  A
C2191      C2192   1.399       .  A
C2191      F2198   1.358       .  S
C2192      C2193   1.410       .  A
C2192      F2197   1.358       .  S
C2193      C2194   1.410       .  A
C2194      F2195   1.358       .  S
C2199      C2200   1.413   1_545  A
C2199      C2204   1.397   1_556  A
C2199      F2206   1.358       .  S
C2200      C3017   1.413       .  A
C2201      C3016   1.413       .  A
C2201      C2202   1.399   1_556  A
C2201      F2208   1.358       .  S
C2202      C2203   1.401       .  A
C2202      F2207   1.358       .  S
C2203      C3020   1.400       .  A
C2204      C3019   1.400   1_545  A
C2204      F2205   1.358       .  S
C2209      C2214   1.397   1_554  A
C2209      F2216   1.358       .  S
C2210      C2211   1.412   1_655  A
C2211      C2212   1.397   1_554  A
C2211      F2218   1.358       .  S
C2212      C2213   1.400   1_455  A
C2212      F2217   1.358       .  S
C2214      F2215   1.358       .  S
C2219      C2224   1.400       .  A
C2219      F2226   1.358       .  S
C2220      C2221   1.409   1_455  A
C2221      C2222   1.399       .  A
C2221      F2228   1.358       .  S
C2222      C2223   1.410   1_655  A
C2222      F2227   1.358       .  S
C2224      F2225   1.358       .  S
C2229      C2234   1.398       .  A
C2229      F2236   1.358       .  S
C2230      C2231   1.410   1_455  A
C2231      C2232   1.399       .  A
C2231      F2238   1.358       .  S
C2232      C2233   1.410   1_655  A
C2232      F2237   1.358       .  S
C2234      F2235   1.358       .  S
C2239      C2244   1.397   1_554  A
C2239      F2246   1.358       .  S
C2240      C2241   1.406   1_455  A
C2241      C2242   1.399   1_554  A
C2241      F2248   1.358       .  S
C2242      C3059   1.409   1_655  A
C2242      F2247   1.358       .  S
C2243      C3058   1.409   1_465  A
C2244      F2245   1.358       .  S
C2249      C2250   1.408       .  A
C2249      C2254   1.396       .  A
C2249      F2256   1.358       .  S
C2250      C2251   1.410       .  A
C2251      C2252   1.398       .  A
C2251      F2258   1.358       .  S
C2252      C2253   1.409       .  A
C2252      F2257   1.358       .  S
C2253      C2254   1.410       .  A
C2254      F2255   1.358       .  S
C2259      C2260   1.406   1_545  A
C2259      C2264   1.398       .  A
C2259      F2266   1.358       .  S
C2260      C3077   1.406       .  A
C2261      C3076   1.406       .  A
C2261      C2262   1.401       .  A
C2261      F2268   1.358       .  S
C2262      C3079   1.407       .  A
C2262      F2267   1.358       .  S
C2263      C3078   1.407       .  A
C2263      C2264   1.405   1_565  A
C2264      F2265   1.358       .  S
C2269      C2270   1.410       .  A
C2269      C2274   1.400       .  A
C2269      F2276   1.358       .  S
C2271      C2272   1.397       .  A
C2271      F2278   1.358       .  S
C2272      F2277   1.358       .  S
C2273      C2274   1.409       .  A
C2274      F2275   1.358       .  S
C2279      C2280   1.406       .  A
C2279      C2284   1.396       .  A
C2279      F2286   1.358       .  S
C2280      C2281   1.407       .  A
C2281      C2282   1.396       .  A
C2281      F2288   1.358       .  S
C2282      C2283   1.407       .  A
C2282      F2287   1.358       .  S
C2283      C2284   1.407       .  A
C2284      F2285   1.358       .  S
C2289      C2290   1.409       .  A
C2289      C2294   1.397       .  A
C2289      F2296   1.358       .  S
C2290      C2291   1.409       .  A
C2291      C2292   1.395       .  A
C2291      F2298   1.358       .  S
C2292      C2293   1.410       .  A
C2292      F2297   1.358       .  S
C2293      C2294   1.409       .  A
C2294      F2295   1.358       .  S
C2299      C2300   1.410   1_545  A
C2299      C2304   1.397       .  A
C2299      F2306   1.358       .  S
C2301      C2302   1.396       .  A
C2301      F2308   1.358       .  S
C2302      F2307   1.358       .  S
C2303      C2304   1.409       .  A
C2304      F2305   1.358       .  S
C2309      C3126   1.409       .  A
C2309      C2314   1.397       .  A
C2309      F2316   1.358       .  S
C2310      C3125   1.409   1_545  A
C2310      C2311   1.408       .  A
C2311      C2312   1.397       .  A
C2311      F2318   1.358       .  S
C2312      C2313   1.410       .  A
C2312      F2317   1.358       .  S
C2313      C3130   1.408   1_545  A
C2314      C3129   1.409       .  A
C2314      F2315   1.358       .  S
C2319      C2320   1.406       .  A
C2319      C2324   1.397       .  A
C2319      F2326   1.358       .  S
C2320      C3137   1.405   1_545  A
C2321      C3136   1.405       .  A
C2321      C2322   1.397       .  A
C2321      F2328   1.358       .  S
C2322      C3139   1.406       .  A
C2322      F2327   1.358       .  S
C2323      C3138   1.406   1_545  A
C2323      C2324   1.405       .  A
C2324      F2325   1.358       .  S
C2329      C2330   1.409       .  A
C2329      C2334   1.397       .  A
C2329      F2336   1.358       .  S
C2330      C2331   1.409       .  A
C2331      C2332   1.396       .  A
C2331      F2338   1.358       .  S
C2332      C2333   1.409       .  A
C2332      F2337   1.358       .  S
C2333      C2334   1.409       .  A
C2334      F2335   1.358       .  S
C2339      C2340   1.406       .  A
C2339      C2344   1.396       .  A
C2339      F2346   1.358       .  S
C2340      C2341   1.406       .  A
C2341      C2342   1.397       .  A
C2341      F2348   1.358       .  S
C2342      C2343   1.407       .  A
C2342      F2347   1.358       .  S
C2343      C2344   1.407       .  A
C2344      F2345   1.358       .  S
C2349      C2350   1.411       .  A
C2349      C2354   1.399       .  A
C2349      F2356   1.358       .  S
C2350      C2351   1.409       .  A
C2351      C2352   1.398       .  A
C2351      F2358   1.358       .  S
C2352      C2353   1.411       .  A
C2352      F2357   1.358       .  S
C2353      C2354   1.409       .  A
C2354      F2355   1.358       .  S
C2359      C2360   1.411       .  A
C2359      C2364   1.399       .  A
C2359      F2366   1.358       .  S
C2360      C2361   1.409       .  A
C2361      C2362   1.398       .  A
C2361      F2368   1.358       .  S
C2362      C2363   1.411       .  A
C2362      F2367   1.358       .  S
C2363      C2364   1.409       .  A
C2364      F2365   1.358       .  S
C2369      C2370   1.409       .  A
C2369      C2374   1.398       .  A
C2369      F2376   1.358       .  S
C2370      C3187   1.410       .  A
C2371      C3186   1.409   1_565  A
C2371      C2372   1.398       .  A
C2371      F2378   1.358       .  S
C2372      C3189   1.409       .  A
C2372      F2377   1.358       .  S
C2373      C3188   1.410       .  A
C2373      C2374   1.409       .  A
C2374      F2375   1.358       .  S
C2379      C3196   1.414       .  A
C2379      C2384   1.400       .  A
C2379      F2386   1.358       .  S
C2380      C3195   1.414       .  A
C2380      C2381   1.412       .  A
C2381      C2382   1.396       .  A
C2381      F2388   1.358       .  S
C2382      C3199   1.401       .  A
C2382      F2387   1.358       .  S
C2383      C3198   1.401   1_545  A
C2383      C2384   1.402       .  A
C2384      F2385   1.358       .  S
C2389      C2394   1.398       .  A
C2389      F2396   1.358       .  S
C2390      C2391   1.405   1_455  A
C2391      C2392   1.397       .  A
C2391      F2398   1.358       .  S
C2392      C2393   1.405   1_655  A
C2392      F2397   1.358       .  S
C2394      F2395   1.358       .  S
C2399      C2404   1.398       .  A
C2399      F2406   1.358       .  S
C2400      C2401   1.400       .  A
C2401      C2402   1.398       .  A
C2401      F2408   1.358       .  S
C2402      C2403   1.412       .  A
C2402      F2407   1.358       .  S
C2404      F2405   1.358       .  S
C2409      C2410   1.410   1_655  A
C2409      C2414   1.397       .  A
C2409      F2416   1.358       .  S
C2411      C2412   1.400       .  A
C2411      F2418   1.358       .  S
C2412      F2417   1.358       .  S
C2413      C2414   1.410   1_455  A
C2414      F2415   1.358       .  S
C2419      C2420   1.411   1_655  A
C2419      C2424   1.400       .  A
C2419      F2426   1.358       .  S
C2421      C2422   1.397       .  A
C2421      F2428   1.358       .  S
C2422      F2427   1.358       .  S
C2423      C2424   1.410   1_455  A
C2424      F2425   1.358       .  S
C2429      C2434   1.397       .  A
C2429      F2436   1.358       .  S
C2430      C2431   1.410   1_455  A
C2431      C2432   1.399       .  A
C2431      F2438   1.358       .  S
C2432      C2433   1.410   1_655  A
C2432      F2437   1.358       .  S
C2434      F2435   1.358       .  S
C2439      C2444   1.396       .  A
C2439      F2446   1.358       .  S
C2440      C2441   1.408       .  A
C2441      C2442   1.399       .  A
C2441      F2448   1.358       .  S
C2442      C2443   1.407       .  A
C2442      F2447   1.358       .  S
C2444      F2445   1.358       .  S
O2449     Cu2457   2.007       .  S
O2450     Cu2457   2.007       .  S
O2450      C2460   1.278       .  A
O2451      C2461   1.278       .  A
O2452     Cu2457   2.002       .  S
O2452      C2462   1.277       .  A
O2454     Cu2458   2.010       .  S
O2455     Cu2458   2.000       .  S
O2456     Cu2458   2.000       .  S
O2456      C2459   1.277   1_665  A
C2459      C3249   1.486       .  S
C2460      C3259   1.477       .  S
O2463     Cu2471   2.005       .  S
O2463      C2473   1.278   1_655  A
O2464     Cu2471   2.010       .  S
O2464      C2474   1.278   1_655  A
O2465     Cu2471   2.000       .  S
O2465      C2475   1.277   1_655  A
O2466     Cu2471   1.998       .  S
O2466      C2476   1.276   1_655  A
O2467     Cu2472   2.012       .  S
O2468     Cu2472   2.012       .  S
O2469     Cu2472   2.002       .  S
O2470     Cu2472   2.015       .  S
C2473      C3229   1.489       .  S
C2474      C3236   1.488       .  S
C2475      C3216   1.483       .  S
C2476      C3206   1.472       .  S
O2477     Cu2485   2.012       .  S
O2478     Cu2485   2.010       .  S
O2479     Cu2485   2.012       .  S
O2479      C2489   1.279       .  A
O2480      C2490   1.279       .  A
O2481     Cu2486   2.001       .  S
O2481      C2490   1.277       .  A
O2482      C2489   1.277       .  A
O2483     Cu2486   2.006       .  S
O2483      C2488   1.278   1_565  A
O2484     Cu2486   2.006       .  S
O2484      C2487   1.278   1_565  A
C2487      C3196   1.489       .  S
C2488      C3186   1.485       .  S
C2489      C3176   1.488       .  S
C2490      C3169   1.489       .  S
O2491     Cu2499   1.999       .  S
O2491      C2501   1.277       .  A
O2492     Cu2499   1.999       .  S
O2492      C2502   1.276       .  A
O2493     Cu2499   2.014       .  S
O2493      C2503   1.279       .  A
O2494     Cu2499   2.011       .  S
O2494      C2504   1.279       .  A
O2495     Cu2500   2.003       .  S
O2495      C2504   1.277       .  A
O2496     Cu2500   1.999       .  S
O2496      C2503   1.277       .  A
O2497     Cu2500   2.002       .  S
O2497      C2502   1.277       .  A
O2498     Cu2500   2.003       .  S
O2498      C2501   1.278       .  A
Cu2499    Cu2500   2.367       .  S
C2501      C3149   1.484       .  S
C2502      C3156   1.474       .  S
C2503      C3166   1.489       .  S
C2504      C3179   1.489       .  S
O2505     Cu2513   2.005       .  S
O2505      C2515   1.278       .  A
O2506     Cu2513   2.011       .  S
O2506      C2516   1.279       .  A
O2507      C2517   1.278       .  A
O2508     Cu2513   2.004       .  S
O2508      C2518   1.277       .  A
O2510     Cu2514   2.001       .  S
O2511     Cu2514   1.998       .  S
O2512     Cu2514   2.004       .  S
C2515      C3119   1.482       .  S
C2516      C3256   1.479       .  S
C2517      C3126   1.482       .  S
C2518      C3139   1.472       .  S
O2519     Cu2527   2.001       .  S
O2520     Cu2527   2.003       .  S
O2521      C2531   1.277       .  A
O2522     Cu2527   2.000       .  S
O2522      C2532   1.277       .  A
O2523      C2532   1.278       .  A
O2524     Cu2528   1.998       .  S
O2524      C2531   1.277       .  A
O2525     Cu2528   2.009       .  S
O2525      C2530   1.277   1_655  A
O2526     Cu2528   2.014       .  S
O2526      C2529   1.279       .  A
C2529      C3089   1.486       .  S
C2530      C3219   1.464       .  S
C2531      C3099   1.475       .  S
C2532      C3106   1.483       .  S
O2533     Cu2541   2.003       .  S
O2533      C2543   1.277       .  A
O2534     Cu2541   1.999       .  S
O2534      C2544   1.277       .  A
O2535     Cu2541   2.018       .  S
O2535      C2545   1.278       .  A
O2536     Cu2541   2.009       .  S
O2536      C2546   1.278       .  A
O2537     Cu2542   2.008       .  S
O2538     Cu2542   1.999       .  S
O2539     Cu2542   2.008       .  S
O2540     Cu2542   2.008       .  S
C2543      C3136   1.473       .  S
C2544      C3129   1.484       .  S
C2545      C3199   1.470       .  S
C2546      C3079   1.474       .  S
O2547     Cu2555   2.004       .  S
O2547      C2557   1.278       .  A
O2548     Cu2555   2.007       .  S
O2548      C2558   1.278       .  A
O2549     Cu2555   2.001       .  S
O2549      C2559   1.277       .  A
O2550     Cu2555   2.002       .  S
O2550      C2560   1.277       .  A
O2551     Cu2556   1.999       .  S
O2551      C2560   1.277       .  A
O2552     Cu2556   2.002       .  S
O2552      C2559   1.278       .  A
O2553     Cu2556   1.998       .  S
O2553      C2558   1.277       .  A
O2554     Cu2556   1.998       .  S
O2554      C2557   1.277       .  A
Cu2555    Cu2556   2.369       .  S
C2557      C3159   1.477       .  S
C2558      C3066   1.484       .  S
C2559      C3109   1.483       .  S
C2560      C3096   1.475       .  S
O2561     Cu2569   2.008       .  S
O2561      C2571   1.278   1_655  A
O2562     Cu2569   2.010       .  S
O2562      C2572   1.278   1_655  A
O2563      C2573   1.278   1_655  A
O2564     Cu2569   2.011       .  S
O2564      C2574   1.278   1_655  A
O2566     Cu2570   2.008       .  S
O2567     Cu2570   2.005       .  S
O2568     Cu2570   2.004       .  S
C2571      C3056   1.476   1_565  S
C2572      C3246   1.486   1_565  S
C2573      C3049   1.487       .  S
C2574      C3036   1.489       .  S
O2575     Cu2583   2.007       .  S
O2575      C2585   1.278   1_655  A
O2576     Cu2583   2.007       .  S
O2576      C2586   1.278   1_655  A
O2577     Cu2583   2.004       .  S
O2577      C2587   1.278       .  A
O2578     Cu2583   2.006       .  S
O2579     Cu2584   2.004       .  S
O2579      C2588   1.277       .  A
O2580     Cu2584   2.000       .  S
O2581     Cu2584   2.013       .  S
O2582     Cu2584   2.005       .  S
C2585      C3046   1.487       .  S
C2586      C3039   1.489       .  S
C2587      C3026   1.480       .  S
O2589     Cu2597   2.007       .  S
O2589      C2599   1.278       .  A
O2590     Cu2597   2.006       .  S
O2590      C2600   1.277       .  A
O2591     Cu2597   2.009       .  S
O2591      C2601   1.278       .  A
O2592      C2602   1.278       .  A
O2593     Cu2598   2.009       .  S
O2593      C2602   1.278       .  A
O2594      C2601   1.277       .  A
O2595     Cu2598   2.006       .  S
O2596     Cu2598   2.006       .  S
C2599      C3189   1.486       .  S
C2600      C3019   1.465       .  S
C2601      C2996   1.487       .  S
C2602      C3009   1.490       .  S
O2603     Cu2611   2.009       .  S
O2603      C2613   1.278       .  A
O2604     Cu2611   2.009       .  S
O2604      C2614   1.278       .  A
O2605     Cu2611   2.001       .  S
O2605      C2615   1.277       .  A
O2606     Cu2611   2.000       .  S
O2606      C2616   1.277       .  A
O2607     Cu2612   2.001       .  S
O2607      C2616   1.277       .  A
O2608     Cu2612   2.003       .  S
O2608      C2615   1.277       .  A
O2609     Cu2612   2.009       .  S
O2609      C2614   1.278       .  A
O2610     Cu2612   2.003       .  S
O2610      C2613   1.277       .  A
Cu2611    Cu2612   2.367       .  S
C2613      C2999   1.486       .  S
C2614      C3006   1.490       .  S
C2615      C2989   1.478       .  S
C2616      C3146   1.484       .  S
O2617     Cu2625   2.000       .  S
O2618     Cu2625   2.005       .  S
O2619      C2629   1.278       .  A
O2620      C2630   1.278       .  A
O2621      C2630   1.279       .  A
O2622      C2629   1.278       .  A
O2623     Cu2626   2.006       .  S
O2624     Cu2626   2.005       .  S
C2629      C2966   1.488       .  S
C2630      C2956   1.490       .  S
O2631      C2641   1.278       .  A
O2632     Cu2639   2.006       .  S
O2632      C2642   1.278       .  A
O2633     Cu2639   2.005       .  S
O2634     Cu2639   2.006       .  S
O2635     Cu2640   2.003       .  S
O2635      C2644   1.277       .  A
O2636     Cu2640   2.001       .  S
O2636      C2643   1.276       .  A
O2637      C2642   1.278       .  A
O2638     Cu2640   2.003       .  S
O2638      C2641   1.277       .  A
C2641      C2926   1.488       .  S
C2642      C2936   1.488       .  S
C2643      C3029   1.461       .  S
C2644      C2946   1.487       .  S
O2645      C2655   1.277       .  A
O2646     Cu2653   2.010       .  S
O2646      C2656   1.279       .  A
O2647     Cu2653   2.007       .  S
O2648     Cu2653   2.008       .  S
O2649     Cu2654   2.005       .  S
O2649      C2658   1.278       .  A
O2650     Cu2654   2.006       .  S
O2650      C2657   1.277       .  A
O2651      C2656   1.277       .  A
O2652     Cu2654   2.011       .  S
O2652      C2655   1.279       .  A
C2655      C2929   1.488       .  S
C2656      C2939   1.488       .  S
C2657      C2919   1.471       .  S
C2658      C3016   1.488       .  S
O2659     Cu2667   2.001       .  S
O2659      C2669   1.277       .  A
O2660     Cu2667   2.002       .  S
O2660      C2670   1.277       .  A
O2661     Cu2667   2.013       .  S
O2661      C2671   1.279       .  A
O2662     Cu2667   2.006       .  S
O2662      C2672   1.278       .  A
O2663     Cu2668   2.005       .  S
O2663      C2672   1.277       .  A
O2664     Cu2668   2.004       .  S
O2664      C2671   1.277       .  A
O2665     Cu2668   2.003       .  S
O2665      C2670   1.277       .  A
O2666     Cu2668   2.002       .  S
O2666      C2669   1.277       .  A
Cu2667    Cu2668   2.367       .  S
C2669      C2909   1.484       .  S
C2670      C2986   1.476       .  S
C2671      C2959   1.490       .  S
C2672      C2969   1.488       .  S
O2673     Cu2681   2.000       .  S
O2675     Cu2681   2.003       .  S
O2676     Cu2681   2.007       .  S
O2677     Cu2682   1.999       .  S
O2677      C2686   1.277       .  A
O2678     Cu2682   2.000       .  S
O2678      C2685   1.276       .  A
O2679     Cu2682   2.005       .  S
O2679      C2684   1.278       .  A
O2680      C2683   1.277       .  A
C2683      C2876   1.474       .  S
C2684      C2886   1.483       .  S
C2686      C3116   1.483       .  S
O2687     Cu2695   2.007       .  S
O2688     Cu2695   2.013       .  S
O2689     Cu2695   2.006       .  S
O2689      C2699   1.278       .  A
O2690      C2700   1.276       .  A
O2691     Cu2696   2.007       .  S
O2691      C2700   1.278       .  A
O2692      C2699   1.277       .  A
O2693     Cu2696   2.001       .  S
O2693      C2698   1.277   1_655  A
O2694     Cu2696   2.008       .  S
O2694      C2697   1.278       .  A
C2697      C3086   1.486       .  S
C2698      C2866   1.472       .  S
C2699      C2859   1.487       .  S
C2700      C2846   1.470       .  S
O2701     Cu2709   1.999       .  S
O2702     Cu2709   2.013       .  S
O2703     Cu2709   2.015       .  S
O2704     Cu2709   2.009       .  S
O2705     Cu2710   2.005       .  S
O2705      C2714   1.277       .  A
O2706     Cu2710   2.002       .  S
O2706      C2713   1.277       .  A
O2707     Cu2710   1.989       .  S
O2707      C2712   1.276       .  A
O2708     Cu2710   2.003       .  S
O2708      C2711   1.277       .  A
C2711      C2879   1.475       .  S
C2712      C2889   1.484       .  S
C2713      C3076   1.474       .  S
C2714      C2836   1.468       .  S
O2715     Cu2723   2.006       .  S
O2715      C2725   1.278       .  A
O2716     Cu2723   2.010       .  S
O2716      C2726   1.278       .  A
O2717     Cu2723   2.005       .  S
O2717      C2727   1.277       .  A
O2718     Cu2723   1.999       .  S
O2718      C2728   1.277       .  A
O2719     Cu2724   2.008       .  S
O2719      C2728   1.278       .  A
O2720     Cu2724   2.001       .  S
O2720      C2727   1.277       .  A
O2721     Cu2724   1.994       .  S
O2721      C2726   1.275       .  A
O2722     Cu2724   2.000       .  S
O2722      C2725   1.277       .  A
Cu2723    Cu2724   2.372       .  S
C2725      C3069   1.484       .  S
C2726      C2826   1.467       .  S
C2727      C2849   1.469       .  S
C2728      C2856   1.486       .  S
O2729      C2739   1.277       .  A
O2730      C2740   1.278       .  A
O2731     Cu2737   1.997       .  S
O2732     Cu2737   1.995       .  S
O2733     Cu2738   2.006       .  S
O2733      C2742   1.278       .  A
O2734     Cu2738   2.007       .  S
O2734      C2741   1.278       .  A
O2735      C2740   1.278       .  A
O2736      C2739   1.279       .  A
C2739      C2806   1.489       .  S
C2740      C2816   1.487       .  S
C2741      C2976   1.475       .  S
C2742      C2899   1.483       .  S
O2743     Cu2751   2.001       .  S
O2744     Cu2751   2.002       .  S
O2745     Cu2751   2.005       .  S
O2745      C2755   1.278       .  A
O2746      C2756   1.278       .  A
O2747     Cu2752   2.010       .  S
O2747      C2756   1.278       .  A
O2748      C2755   1.278       .  A
O2749     Cu2752   2.012       .  S
O2749      C2754   1.278       .  A
O2750     Cu2752   2.010       .  S
O2750      C2753   1.278       .  A
C2753      C2949   1.488       .  S
C2754      C2869   1.487       .  S
C2755      C2796   1.488       .  S
C2756      C2786   1.489       .  S
O2757     Cu2765   2.014       .  S
O2757      C2767   1.279       .  A
O2758      C2768   1.278       .  A
O2759     Cu2765   2.005       .  S
O2760     Cu2765   2.005       .  S
O2761     Cu2766   2.010       .  S
O2761      C2770   1.278       .  A
O2762     Cu2766   2.008       .  S
O2762      C2769   1.278       .  A
O2763     Cu2766   2.009       .  S
O2763      C2768   1.278       .  A
O2764      C2767   1.277       .  A
C2767      C2799   1.489       .  S
C2768      C2789   1.489       .  S
C2769      C2916   1.471       .  S
C2770      C2839   1.488       .  S
O2771     Cu2779   2.003       .  S
O2771      C2781   1.277       .  A
O2772     Cu2779   2.004       .  S
O2772      C2782   1.278       .  A
O2773     Cu2779   2.011       .  S
O2773      C2783   1.279       .  A
O2774     Cu2779   2.010       .  S
O2774      C2784   1.278       .  A
O2775     Cu2780   2.004       .  S
O2775      C2784   1.277       .  A
O2776     Cu2780   2.006       .  S
O2776      C2783   1.278       .  A
O2777     Cu2780   2.001       .  S
O2777      C2782   1.277       .  A
O2778     Cu2780   2.001       .  S
O2778      C2781   1.277       .  A
Cu2779    Cu2780   2.366       .  S
C2781      C2906   1.484       .  S
C2782      C2829   1.485       .  S
C2783      C2809   1.489       .  S
C2784      C2819   1.486       .  S
C2785      C2786   1.410       .  A
C2785      C2790   1.398       .  A
C2785      F2792   1.358       .  S
C2786      C2787   1.410       .  A
C2787      C2788   1.399       .  A
C2787      F2794   1.358       .  S
C2788      C2789   1.410       .  A
C2788      F2793   1.358       .  S
C2789      C2790   1.410       .  A
C2790      F2791   1.358       .  S
C2795      C2796   1.410       .  A
C2795      C2800   1.398       .  A
C2795      F2802   1.358       .  S
C2796      C2797   1.410       .  A
C2797      C2798   1.398       .  A
C2797      F2804   1.358       .  S
C2798      C2799   1.409       .  A
C2798      F2803   1.358       .  S
C2799      C2800   1.411       .  A
C2800      F2801   1.358       .  S
C2805      C2806   1.410       .  A
C2805      C2810   1.398       .  A
C2805      F2812   1.358       .  S
C2806      C2807   1.410       .  A
C2807      C2808   1.400       .  A
C2807      F2814   1.358       .  S
C2808      C2809   1.411       .  A
C2808      F2813   1.358       .  S
C2809      C2810   1.409       .  A
C2810      F2811   1.358       .  S
C2815      C2816   1.410       .  A
C2815      C2820   1.399       .  A
C2815      F2822   1.358       .  S
C2816      C2817   1.409       .  A
C2817      C2818   1.398       .  A
C2817      F2824   1.358       .  S
C2818      C2819   1.409       .  A
C2818      F2823   1.358       .  S
C2819      C2820   1.409       .  A
C2820      F2821   1.358       .  S
C2825      C2826   1.402       .  A
C2825      C2830   1.397       .  A
C2825      F2832   1.358       .  S
C2826      C2827   1.401       .  A
C2827      C2828   1.397       .  A
C2827      F2834   1.358       .  S
C2828      C2829   1.412       .  A
C2828      F2833   1.358       .  S
C2829      C2830   1.412       .  A
C2830      F2831   1.358       .  S
C2835      C2836   1.402       .  A
C2835      C2840   1.399       .  A
C2835      F2842   1.358       .  S
C2837      C2838   1.398       .  A
C2837      F2844   1.358       .  S
C2838      F2843   1.358       .  S
C2839      C2840   1.413       .  A
C2840      F2841   1.358       .  S
C2845      C2846   1.404       .  A
C2845      C2850   1.397       .  A
C2845      F2852   1.358       .  S
C2846      C2847   1.406       .  A
C2847      C2848   1.398       .  A
C2847      F2854   1.358       .  S
C2848      C2849   1.405       .  A
C2848      F2853   1.358       .  S
C2849      C2850   1.405       .  A
C2850      F2851   1.358       .  S
C2855      C2856   1.410       .  A
C2855      C2860   1.397       .  A
C2855      F2862   1.358       .  S
C2856      C2857   1.409       .  A
C2857      C2858   1.398       .  A
C2857      F2864   1.358       .  S
C2858      C2859   1.410       .  A
C2858      F2863   1.358       .  S
C2859      C2860   1.409       .  A
C2860      F2861   1.358       .  S
C2865      C2870   1.397       .  A
C2865      F2872   1.358       .  S
C2866      C2867   1.403   1_455  A
C2867      C2868   1.400       .  A
C2867      F2874   1.358       .  S
C2868      C2869   1.412       .  A
C2868      F2873   1.358       .  S
C2870      F2871   1.358       .  S
C2875      C2876   1.406       .  A
C2875      C2880   1.397       .  A
C2875      F2882   1.358       .  S
C2877      C2878   1.396       .  A
C2877      F2884   1.358       .  S
C2878      F2883   1.358       .  S
C2879      C2880   1.407       .  A
C2880      F2881   1.358       .  S
C2885      C2886   1.408       .  A
C2885      C2890   1.395       .  A
C2885      F2892   1.358       .  S
C2887      C2888   1.398       .  A
C2887      F2894   1.358       .  S
C2888      F2893   1.358       .  S
C2889      C2890   1.410       .  A
C2890      F2891   1.358       .  S
C2895      C2900   1.396       .  A
C2895      F2902   1.358       .  S
C2897      C2898   1.398       .  A
C2897      F2904   1.358       .  S
C2898      F2903   1.358       .  S
C2900      F2901   1.358       .  S
C2905      C2906   1.409       .  A
C2905      C2910   1.397       .  A
C2905      F2912   1.358       .  S
C2906      C2907   1.409       .  A
C2907      C2908   1.397       .  A
C2907      F2914   1.358       .  S
C2908      C2909   1.409       .  A
C2908      F2913   1.358       .  S
C2909      C2910   1.409       .  A
C2910      F2911   1.358       .  S
C2915      C2920   1.398       .  A
C2915      F2922   1.358       .  S
C2916      C2917   1.404       .  A
C2917      C2918   1.398       .  A
C2917      F2924   1.358       .  S
C2918      C2919   1.405       .  A
C2918      F2923   1.358       .  S
C2920      F2921   1.358       .  S
C2925      C2926   1.410       .  A
C2925      C2930   1.398       .  A
C2925      F2932   1.358       .  S
C2926      C2927   1.410       .  A
C2927      C2928   1.398       .  A
C2927      F2934   1.358       .  S
C2928      C2929   1.409       .  A
C2928      F2933   1.358       .  S
C2929      C2930   1.411       .  A
C2930      F2931   1.358       .  S
C2935      C2936   1.410       .  A
C2935      C2940   1.398       .  A
C2935      F2942   1.358       .  S
C2936      C2937   1.410       .  A
C2937      C2938   1.398       .  A
C2937      F2944   1.358       .  S
C2938      C2939   1.410       .  A
C2938      F2943   1.358       .  S
C2939      C2940   1.410       .  A
C2940      F2941   1.358       .  S
C2945      C2950   1.398       .  A
C2945      F2952   1.358       .  S
C2946      C2947   1.409   1_655  A
C2947      C2948   1.398       .  A
C2947      F2954   1.358       .  S
C2948      C2949   1.410   1_455  A
C2948      F2953   1.358       .  S
C2950      F2951   1.358       .  S
C2955      C2956   1.411       .  A
C2955      C2960   1.399       .  A
C2955      F2962   1.358       .  S
C2956      C2957   1.410       .  A
C2957      C2958   1.399       .  A
C2957      F2964   1.358       .  S
C2958      C2959   1.411       .  A
C2958      F2963   1.358       .  S
C2959      C2960   1.410       .  A
C2960      F2961   1.358       .  S
C2965      C2966   1.410       .  A
C2965      C2970   1.397       .  A
C2965      F2972   1.358       .  S
C2966      C2967   1.410       .  A
C2967      C2968   1.399       .  A
C2967      F2974   1.358       .  S
C2968      C2969   1.411       .  A
C2968      F2973   1.358       .  S
C2969      C2970   1.409       .  A
C2970      F2971   1.358       .  S
C2975      C2980   1.396       .  A
C2975      F2982   1.358       .  S
C2977      C2978   1.397       .  A
C2977      F2984   1.358       .  S
C2978      F2983   1.358       .  S
C2980      F2981   1.358       .  S
C2985      C2986   1.407       .  A
C2985      C2990   1.398   1_556  A
C2985      F2992   1.358       .  S
C2986      C2987   1.406       .  A
C2987      C2988   1.396   1_556  A
C2987      F2994   1.358       .  S
C2988      C2989   1.407       .  A
C2988      F2993   1.358       .  S
C2989      C2990   1.408       .  A
C2990      F2991   1.358       .  S
C2995      C2996   1.409       .  A
C2995      C3000   1.397       .  A
C2995      F3002   1.358       .  S
C2996      C2997   1.410       .  A
C2997      C2998   1.398       .  A
C2997      F3004   1.358       .  S
C2998      C2999   1.409       .  A
C2998      F3003   1.358       .  S
C2999      C3000   1.410       .  A
C3000      F3001   1.358       .  S
C3005      C3006   1.410       .  A
C3005      C3010   1.399       .  A
C3005      F3012   1.358       .  S
C3006      C3007   1.410       .  A
C3007      C3008   1.399       .  A
C3007      F3014   1.358       .  S
C3008      C3009   1.410       .  A
C3008      F3013   1.358       .  S
C3009      C3010   1.410       .  A
C3010      F3011   1.358       .  S
C3015      C3016   1.413       .  A
C3015      C3020   1.398   1_556  A
C3015      F3022   1.358       .  S
C3017      C3018   1.399   1_556  A
C3017      F3024   1.358       .  S
C3018      C3019   1.401       .  A
C3018      F3023   1.358       .  S
C3020      F3021   1.358       .  S
C3025      C3030   1.398   1_554  A
C3025      F3032   1.358       .  S
C3026      C3027   1.411   1_655  A
C3027      C3028   1.397   1_554  A
C3027      F3034   1.358       .  S
C3028      C3029   1.400   1_455  A
C3028      F3033   1.358       .  S
C3030      F3031   1.358       .  S
C3035      C3040   1.399       .  A
C3035      F3042   1.358       .  S
C3036      C3037   1.410   1_455  A
C3037      C3038   1.399       .  A
C3037      F3044   1.358       .  S
C3038      C3039   1.410   1_655  A
C3038      F3043   1.358       .  S
C3040      F3041   1.358       .  S
C3045      C3050   1.398       .  A
C3045      F3052   1.358       .  S
C3046      C3047   1.410   1_455  A
C3047      C3048   1.398       .  A
C3047      F3054   1.358       .  S
C3048      C3049   1.410   1_655  A
C3048      F3053   1.358       .  S
C3050      F3051   1.358       .  S
C3055      C3060   1.398   1_554  A
C3055      F3062   1.358       .  S
C3056      C3057   1.406   1_455  A
C3057      C3058   1.398   1_554  A
C3057      F3064   1.358       .  S
C3058      F3063   1.358       .  S
C3060      F3061   1.358       .  S
C3065      C3066   1.408       .  A
C3065      C3070   1.396       .  A
C3065      F3072   1.358       .  S
C3066      C3067   1.410       .  A
C3067      C3068   1.397       .  A
C3067      F3074   1.358       .  S
C3068      C3069   1.409       .  A
C3068      F3073   1.358       .  S
C3069      C3070   1.410       .  A
C3070      F3071   1.358       .  S
C3075      C3076   1.406       .  A
C3075      C3080   1.397       .  A
C3075      F3082   1.358       .  S
C3077      C3078   1.401       .  A
C3077      F3084   1.358       .  S
C3078      F3083   1.358       .  S
C3079      C3080   1.404       .  A
C3080      F3081   1.358       .  S
C3085      C3086   1.410       .  A
C3085      C3090   1.400       .  A
C3085      F3092   1.358       .  S
C3087      C3088   1.397       .  A
C3087      F3094   1.358       .  S
C3088      F3093   1.358       .  S
C3089      C3090   1.409       .  A
C3090      F3091   1.358       .  S
C3095      C3096   1.407       .  A
C3095      C3100   1.396       .  A
C3095      F3102   1.358       .  S
C3096      C3097   1.407       .  A
C3097      C3098   1.396       .  A
C3097      F3104   1.358       .  S
C3098      C3099   1.407       .  A
C3098      F3103   1.358       .  S
C3099      C3100   1.407       .  A
C3100      F3101   1.358       .  S
C3105      C3106   1.409       .  A
C3105      C3110   1.396       .  A
C3105      F3112   1.358       .  S
C3106      C3107   1.409       .  A
C3107      C3108   1.397       .  A
C3107      F3114   1.358       .  S
C3108      C3109   1.409       .  A
C3108      F3113   1.358       .  S
C3109      C3110   1.409       .  A
C3110      F3111   1.358       .  S
C3115      C3116   1.409       .  A
C3115      C3120   1.397       .  A
C3115      F3122   1.358       .  S
C3117      C3118   1.397       .  A
C3117      F3124   1.358       .  S
C3118      F3123   1.358       .  S
C3119      C3120   1.408       .  A
C3120      F3121   1.358       .  S
C3125      C3130   1.397       .  A
C3125      F3132   1.358       .  S
C3126      C3127   1.408       .  A
C3127      C3128   1.397       .  A
C3127      F3134   1.358       .  S
C3128      C3129   1.410       .  A
C3128      F3133   1.358       .  S
C3130      F3131   1.358       .  S
C3135      C3136   1.406       .  A
C3135      C3140   1.398       .  A
C3135      F3142   1.358       .  S
C3137      C3138   1.398       .  A
C3137      F3144   1.358       .  S
C3138      F3143   1.358       .  S
C3139      C3140   1.406       .  A
C3140      F3141   1.358       .  S
C3145      C3146   1.409       .  A
C3145      C3150   1.397       .  A
C3145      F3152   1.358       .  S
C3146      C3147   1.409       .  A
C3147      C3148   1.396       .  A
C3147      F3154   1.358       .  S
C3148      C3149   1.409       .  A
C3148      F3153   1.358       .  S
C3149      C3150   1.409       .  A
C3150      F3151   1.358       .  S
C3155      C3156   1.405       .  A
C3155      C3160   1.396       .  A
C3155      F3162   1.358       .  S
C3156      C3157   1.406       .  A
C3157      C3158   1.397       .  A
C3157      F3164   1.358       .  S
C3158      C3159   1.408       .  A
C3158      F3163   1.358       .  S
C3159      C3160   1.408       .  A
C3160      F3161   1.358       .  S
C3165      C3166   1.411       .  A
C3165      C3170   1.398       .  A
C3165      F3172   1.358       .  S
C3166      C3167   1.409       .  A
C3167      C3168   1.398       .  A
C3167      F3174   1.358       .  S
C3168      C3169   1.411       .  A
C3168      F3173   1.358       .  S
C3169      C3170   1.409       .  A
C3170      F3171   1.358       .  S
C3175      C3176   1.411       .  A
C3175      C3180   1.398       .  A
C3175      F3182   1.358       .  S
C3176      C3177   1.409       .  A
C3177      C3178   1.398       .  A
C3177      F3184   1.358       .  S
C3178      C3179   1.411       .  A
C3178      F3183   1.358       .  S
C3179      C3180   1.409       .  A
C3180      F3181   1.358       .  S
C3185      C3186   1.409       .  A
C3185      C3190   1.398       .  A
C3185      F3192   1.358       .  S
C3187      C3188   1.399       .  A
C3187      F3194   1.358       .  S
C3188      F3193   1.358       .  S
C3189      C3190   1.409   1_565  A
C3190      F3191   1.358       .  S
C3195      C3200   1.402       .  A
C3195      F3202   1.358       .  S
C3196      C3197   1.412   1_545  A
C3197      C3198   1.397       .  A
C3197      F3204   1.358       .  S
C3198      F3203   1.358       .  S
C3199      C3200   1.402       .  A
C3200      F3201   1.358       .  S
C3205      C3210   1.400       .  A
C3205      F3212   1.358       .  S
C3206      C3207   1.405   1_455  A
C3207      C3208   1.396       .  A
C3207      F3214   1.358       .  S
C3208      C3209   1.404   1_655  A
C3208      F3213   1.358       .  S
C3210      F3211   1.358       .  S
C3215      C3220   1.399       .  A
C3215      F3222   1.358       .  S
C3216      C3217   1.411       .  A
C3217      C3218   1.398       .  A
C3217      F3224   1.358       .  S
C3218      C3219   1.400       .  A
C3218      F3223   1.358       .  S
C3220      F3221   1.358       .  S
C3225      C3226   1.409   1_655  A
C3225      C3230   1.397       .  A
C3225      F3232   1.358       .  S
C3227      C3228   1.402       .  A
C3227      F3234   1.358       .  S
C3228      F3233   1.358       .  S
C3229      C3230   1.410   1_455  A
C3230      F3231   1.358       .  S
C3235      C3236   1.410   1_655  A
C3235      C3240   1.399       .  A
C3235      F3242   1.358       .  S
C3237      C3238   1.396       .  A
C3237      F3244   1.358       .  S
C3238      F3243   1.358       .  S
C3239      C3240   1.410   1_455  A
C3240      F3241   1.358       .  S
C3245      C3250   1.398       .  A
C3245      F3252   1.358       .  S
C3246      C3247   1.409   1_445  A
C3247      C3248   1.398       .  A
C3247      F3254   1.358       .  S
C3248      C3249   1.410   1_665  A
C3248      F3253   1.358       .  S
C3250      F3251   1.358       .  S
C3255      C3260   1.396       .  A
C3255      F3262   1.358       .  S
C3256      C3257   1.407       .  A
C3257      C3258   1.399       .  A
C3257      F3264   1.358       .  S
C3258      C3259   1.407       .  A
C3258      F3263   1.358       .  S
C3260      F3261   1.358       .  S
