geometry optimzed in LAMMPS
_audit_creation_date              2020-11-30 
_audit_creation_method            'lammps2cif' 
_symmetry_space_group_name_H-M    'P1' 
_symmetry_Int_Tables_number       1 
_symmetry_cell_setting            triclinic 
loop_ 
_symmetry_equiv_pos_as_xyz 
  x,y,z 
_cell_length_a                    35.822198782381165 
_cell_length_b                    37.062081578443774 
_cell_length_c                    41.92256228098705 
_cell_angle_alpha                 89.65818221188495 
_cell_angle_beta                  89.5271534862416 
_cell_angle_gamma                 119.31826491250378 
loop_ 
_atom_site_label 
_atom_site_type_symbol 
_atom_site_fract_x 
_atom_site_fract_y 
_atom_site_fract_z 
_atom_site_charge 
O1          O  0.32207886  0.03569575  0.22773163    -0.57480
C2          C  0.25824806  0.44098556  0.29057935     0.75140
O3          O  0.21249279  0.03677358  0.27163986    -0.58640
C4          C  0.31472948  0.05765140  0.20820942     0.75120
C5          C  0.18163922  0.44204468  0.20910197     0.77510
Cd6        Cd  0.24839084  0.99902573  0.25009736     1.37470
O7          O  0.28415689  0.45946413  0.26772994    -0.57480
O8          O  0.22074375  0.45884485  0.20118014    -0.56290
C9          C  0.24126270  0.05730735  0.29170772     0.77470
O10         O  0.17297993  0.45258682  0.23560201    -0.58660
O11         O  0.22888537  0.45011827  0.29468652    -0.57110
O12         O  0.27685236  0.05191081  0.20817531    -0.57100
O13         O  0.27242108  0.05026300  0.29230200    -0.56280
O14         O  0.32582618  0.28136530  0.43277183    -0.57480
C15         C  0.25956726  0.31693141  0.37344514     0.75050
O16         O  0.21221548  0.18082522  0.38881811    -0.58640
C17         C  0.31697243  0.25819834  0.45719713     0.75120
C18         C  0.18559041  0.24264500  0.45731000     0.77510
Cd19       Cd  0.25159229  0.25027883  0.41396723     1.37470
O20         O  0.29127302  0.32020337  0.38879469    -0.57480
O21         O  0.22432190  0.27015357  0.46056491    -0.56290
C22         C  0.24477955  0.18347489  0.37462572     0.77470
O23         O  0.17742385  0.21776113  0.43446014    -0.58660
O24         O  0.22501814  0.28318349  0.37635836    -0.57110
O25         O  0.27785805  0.23222592  0.46203584    -0.57100
O26         O  0.27939245  0.21683320  0.37812278    -0.56280
O27         O  0.04562089  0.22106089  0.06869491    -0.57480
C28         C  0.43922050  0.18249904  0.12299767     0.75140
O29         O  0.04573320  0.32586324  0.09941361    -0.58640
C30         C  0.05968945  0.24272706  0.04346392     0.75120
C31         C  0.44157150  0.25903348  0.04378589     0.77510
Cd32       Cd  0.50084486  0.25180800  0.08529990     1.37470
O33         O  0.47404737  0.18455827  0.11398695    -0.57480
O34         O  0.45800511  0.23648992  0.03715132    -0.56290
C35         C  0.05729027  0.31889609  0.12608241     0.77470
O36         O  0.45319750  0.27916846  0.06953349    -0.58660
O37         O  0.43319990  0.21197244  0.11447869    -0.57110
O38         O  0.04584733  0.26744498  0.03736209    -0.57100
O39         O  0.04131414  0.28132797  0.13418563    -0.56280
C40         C  0.16068888  0.24631950  0.01190450    -0.08830
C41         C  0.15194545  0.24006641  0.47920918     0.07370
C42         C  0.11211653  0.23356983  0.46800701    -0.02590
C43         C  0.08218250  0.23394649  0.48943846    -0.07040
C44         C  0.09086878  0.23988292  0.02210889     0.06480
C45         C  0.13039677  0.24590718  0.03338251    -0.02070
Br46       Br  0.14587405  0.25702299  0.07738107    -0.01760
H47         H  0.19135839  0.25181380  0.02076286     0.10400
H48         H  0.05208374  0.22995414  0.48051849     0.08410
Br49       Br  0.09814019  0.22743038  0.42355339    -0.02190
C50         C  0.41857705  0.26430477  0.48926552    -0.08830
C51         C  0.41054409  0.26145485  0.02224289     0.07370
C52         C  0.37215995  0.25883332  0.03367105    -0.02590
C53         C  0.34220296  0.25804069  0.01206773    -0.07040
C54         C  0.35029239  0.26099328  0.47907618     0.06480
C55         C  0.38919515  0.26469572  0.46771248    -0.02070
Br56       Br  0.40283984  0.26755734  0.42308748    -0.01760
H57         H  0.44789171  0.26613962  0.48019535     0.10400
H58         H  0.31235532  0.25503250  0.02109363     0.08410
Br59       Br  0.35756888  0.25341883  0.07823878    -0.02190
C60         C  0.08580033  0.34436903  0.17992025    -0.08830
C61         C  0.08786590  0.35219355  0.14692646     0.07370
C62         C  0.12068351  0.39037846  0.13473808    -0.02590
C63         C  0.15053345  0.41943975  0.15549459    -0.07040
C64         C  0.14819625  0.41151726  0.18840620     0.06480
C65         C  0.11546511  0.37356140  0.20061666    -0.02070
Br66       Br  0.11207163  0.35829980  0.24482079    -0.01760
H67         H  0.06128172  0.31503374  0.18969865     0.10400
H68         H  0.17602583  0.44832123  0.14582301     0.08410
Br69       Br  0.12882837  0.40377137  0.09000493    -0.02190
C70         C  0.42162962  0.13530308  0.16977632    -0.08830
C71         C  0.40759699  0.14828377  0.14318774     0.07370
C72         C  0.36338085  0.13029366  0.13762976    -0.02590
C73         C  0.33409856  0.10057390  0.15888752    -0.07040
C74         C  0.34781998  0.08816893  0.18607765     0.06480
C75         C  0.39230241  0.10588642  0.19139719    -0.02070
Br76       Br  0.41544892  0.09421616  0.22871498    -0.01760
H77         H  0.45559768  0.14940970  0.17449362     0.10400
H78         H  0.30022821  0.08707406  0.15402775     0.08410
Br79       Br  0.34110271  0.14378149  0.10068852    -0.02190
C80         C  0.27460316  0.11006719  0.33378056    -0.08830
C81         C  0.23978277  0.08827448  0.31337500     0.07370
C82         C  0.20554767  0.09716450  0.31439987    -0.02590
C83         C  0.20725676  0.12748516  0.33515258    -0.07040
C84         C  0.24273104  0.14982964  0.35471285     0.06480
C85         C  0.27636065  0.14043753  0.35418848    -0.02070
Br86       Br  0.32463431  0.16630579  0.38197074    -0.01760
H87         H  0.30102502  0.10362685  0.33393910     0.10400
H88         H  0.18114950  0.13440194  0.33540344     0.08410
Br89       Br  0.15576547  0.07012668  0.28817911    -0.02190
C90         C  0.28268275  0.35861861  0.32350526    -0.08830
C91         C  0.26216992  0.35062387  0.35334156     0.07370
C92         C  0.24166930  0.37293934  0.36268388    -0.02590
C93         C  0.24164430  0.40269027  0.34210622    -0.07040
C94         C  0.26149482  0.41053032  0.31182664     0.06480
C95         C  0.28220082  0.38799983  0.30256395    -0.02070
Br96       Br  0.30713888  0.39288533  0.26096698    -0.01760
H97         H  0.29781449  0.34085268  0.31601026     0.10400
H98         H  0.22565407  0.41957678  0.34982147     0.08410
Br99       Br  0.21342675  0.36384211  0.40342508    -0.02190
O100        O  0.32207889  0.03569576  0.72773164    -0.57480
C101        C  0.25824813  0.44098559  0.79057935     0.75140
O102        O  0.21249284  0.03677363  0.77163990    -0.58640
C103        C  0.31472951  0.05765141  0.70820943     0.75120
C104        C  0.18163924  0.44204468  0.70910198     0.77510
Cd105      Cd  0.24839086  0.99902575  0.75009737     1.37470
O106        O  0.28415686  0.45946406  0.76772986    -0.57480
O107        O  0.22074376  0.45884488  0.70118013    -0.56290
C108        C  0.24126275  0.05730739  0.79170776     0.77470
O109        O  0.17297995  0.45258679  0.73560204    -0.58660
O110        O  0.22888553  0.45011840  0.79468660    -0.57110
O111        O  0.27685239  0.05191084  0.70817533    -0.57100
O112        O  0.27242112  0.05026303  0.79230203    -0.56280
O113        O  0.32582622  0.28136496  0.93277157    -0.57480
C114        C  0.25956732  0.31693140  0.87344508     0.75050
O115        O  0.21221554  0.18082523  0.88881818    -0.58640
C116        C  0.31697243  0.25819823  0.95719702     0.75120
C117        C  0.18559027  0.24264501  0.95730994     0.77510
Cd118      Cd  0.25159224  0.25027886  0.91396723     1.37470
O119        O  0.29127254  0.32020409  0.88879582    -0.57480
O120        O  0.22432174  0.27015360  0.96056483    -0.56290
C121        C  0.24477963  0.18347492  0.87462579     0.77470
O122        O  0.17742374  0.21776114  0.93446008    -0.58660
O123        O  0.22501871  0.28318279  0.87635712    -0.57110
O124        O  0.27785801  0.23222607  0.96203588    -0.57100
O125        O  0.27939253  0.21683325  0.87812286    -0.56280
O126        O  0.04562100  0.22106094  0.56869494    -0.57480
C127        C  0.43922054  0.18249903  0.62299766     0.75140
O128        O  0.04573323  0.32586323  0.59941360    -0.58640
C129        C  0.05968953  0.24272708  0.54346393     0.75120
C130        C  0.44157152  0.25903350  0.54378592     0.77510
Cd131      Cd  0.50084490  0.25180800  0.58529990     1.37470
O132        O  0.47404739  0.18455824  0.61398693    -0.57480
O133        O  0.45800511  0.23648992  0.53715133    -0.56290
C134        C  0.05729029  0.31889608  0.62608241     0.77470
O135        O  0.45319756  0.27916848  0.56953351    -0.58660
O136        O  0.43319995  0.21197245  0.61447871    -0.57110
O137        O  0.04584734  0.26744493  0.53736206    -0.57100
O138        O  0.04131416  0.28132797  0.63418563    -0.56280
C139        C  0.16068898  0.24631949  0.51190456    -0.08830
C140        C  0.15194531  0.24006638  0.97920913     0.07370
C141        C  0.11211637  0.23356976  0.96800698    -0.02590
C142        C  0.08218235  0.23394641  0.98943844    -0.07040
C143        C  0.09086888  0.23988295  0.52210891     0.06480
C144        C  0.13039686  0.24590718  0.53338256    -0.02070
Br145      Br  0.14587408  0.25702292  0.57738113    -0.01760
H146        H  0.19135847  0.25181375  0.52076294     0.10400
H147        H  0.05208357  0.22995403  0.98051849     0.08410
Br148      Br  0.09813997  0.22743024  0.92355337    -0.02190
C149        C  0.41857707  0.26430474  0.98926548    -0.08830
C150        C  0.41054410  0.26145487  0.52224293     0.07370
C151        C  0.37215997  0.25883336  0.53367112    -0.02590
C152        C  0.34220297  0.25804076  0.51206782    -0.07040
C153        C  0.35029239  0.26099319  0.97907608     0.06480
C154        C  0.38919518  0.26469565  0.96771241    -0.02070
Br155      Br  0.40283994  0.26755729  0.92308743    -0.01760
H156        H  0.44789175  0.26613960  0.98019533     0.10400
H157        H  0.31235534  0.25503257  0.52109374     0.08410
Br158      Br  0.35756894  0.25341885  0.57823886    -0.02190
C159        C  0.08580038  0.34436901  0.67992025    -0.08830
C160        C  0.08786592  0.35219355  0.64692647     0.07370
C161        C  0.12068349  0.39037849  0.63473809    -0.02590
C162        C  0.15053344  0.41943977  0.65549460    -0.07040
C163        C  0.14819626  0.41151726  0.68840621     0.06480
C164        C  0.11546515  0.37356137  0.70061667    -0.02070
Br165      Br  0.11207172  0.35829975  0.74482078    -0.01760
H166        H  0.06128179  0.31503370  0.68969864     0.10400
H167        H  0.17602578  0.44832128  0.64582303     0.08410
Br168      Br  0.12882831  0.40377143  0.59000495    -0.02190
C169        C  0.42162965  0.13530307  0.66977632    -0.08830
C170        C  0.40759703  0.14828377  0.64318774     0.07370
C171        C  0.36338089  0.13029367  0.63762976    -0.02590
C172        C  0.33409859  0.10057391  0.65888753    -0.07040
C173        C  0.34782001  0.08816894  0.68607766     0.06480
C174        C  0.39230244  0.10588642  0.69139719    -0.02070
Br175      Br  0.41544895  0.09421615  0.72871499    -0.01760
H176        H  0.45559771  0.14940968  0.67449361     0.10400
H177        H  0.30022824  0.08707407  0.65402776     0.08410
Br178      Br  0.34110275  0.14378150  0.60068852    -0.02190
C179        C  0.27460323  0.11006722  0.83378061    -0.08830
C180        C  0.23978283  0.08827452  0.81337504     0.07370
C181        C  0.20554774  0.09716455  0.81439992    -0.02590
C182        C  0.20725684  0.12748521  0.83515264    -0.07040
C183        C  0.24273112  0.14982968  0.85471291     0.06480
C184        C  0.27636072  0.14043756  0.85418853    -0.02070
Br185      Br  0.32463438  0.16630580  0.88197080    -0.01760
H186        H  0.30102508  0.10362688  0.83393913     0.10400
H187        H  0.18114959  0.13440199  0.83540351     0.08410
Br188      Br  0.15576553  0.07012674  0.78817916    -0.02190
C189        C  0.28268241  0.35861828  0.82350505    -0.08830
C190        C  0.26216999  0.35062385  0.85334149     0.07370
C191        C  0.24166975  0.37293961  0.86268397    -0.02590
C192        C  0.24164473  0.40269055  0.84210632    -0.07040
C193        C  0.26149491  0.41053035  0.81182662     0.06480
C194        C  0.28220055  0.38799958  0.80256379    -0.02070
Br195      Br  0.30713822  0.39288484  0.76096670    -0.01760
H196        H  0.29781386  0.34085213  0.81600994     0.10400
H197        H  0.22565475  0.41957725  0.84982166     0.08410
Br198      Br  0.21342750  0.36384254  0.90342528    -0.02190
O199        O  0.32207887  0.53569574  0.22773163    -0.57480
C200        C  0.25824809  0.94098557  0.29057934     0.75140
O201        O  0.21249282  0.53677361  0.27163988    -0.58640
C202        C  0.31472949  0.55765139  0.20820943     0.75120
C203        C  0.18163921  0.94204466  0.20910197     0.77510
Cd204      Cd  0.24839084  0.49902574  0.25009737     1.37470
O205        O  0.28415686  0.95946408  0.26772988    -0.57480
O206        O  0.22074374  0.95884485  0.20118013    -0.56290
C207        C  0.24126272  0.55730737  0.29170775     0.77470
O208        O  0.17297992  0.95258679  0.23560202    -0.58660
O209        O  0.22888544  0.95011834  0.29468655    -0.57110
O210        O  0.27685237  0.55191082  0.20817532    -0.57100
O211        O  0.27242109  0.55026300  0.29230203    -0.56280
O212        O  0.32582620  0.78136515  0.43277170    -0.57480
C213        C  0.25956730  0.81693142  0.37344511     0.75050
O214        O  0.21221551  0.68082525  0.38881813    -0.58640
C215        C  0.31697243  0.75819831  0.45719708     0.75120
C216        C  0.18559035  0.74264503  0.45730997     0.77510
Cd217      Cd  0.25159227  0.75027886  0.41396722     1.37470
O218        O  0.29127280  0.82020372  0.38879522    -0.57480
O219        O  0.22432184  0.77015361  0.46056487    -0.56290
C220        C  0.24477959  0.68347491  0.37462575     0.77470
O221        O  0.17742380  0.71776115  0.43446011    -0.58660
O222        O  0.22501842  0.78318317  0.37635776    -0.57110
O223        O  0.27785803  0.73222602  0.46203586    -0.57100
O224        O  0.27939250  0.71683322  0.37812283    -0.56280
O225        O  0.04562099  0.72106094  0.06869494    -0.57480
C226        C  0.43922051  0.68249902  0.12299766     0.75140
O227        O  0.04573321  0.82586321  0.09941360    -0.58640
C228        C  0.05968951  0.74272707  0.04346392     0.75120
C229        C  0.44157151  0.75903349  0.04378591     0.77510
Cd230      Cd  0.50084488  0.75180798  0.08529990     1.37470
O231        O  0.47404737  0.68455822  0.11398693    -0.57480
O232        O  0.45800510  0.73648991  0.03715133    -0.56290
C233        C  0.05729027  0.81889606  0.12608241     0.77470
O234        O  0.45319753  0.77916846  0.06953350    -0.58660
O235        O  0.43319993  0.71197243  0.11447871    -0.57110
O236        O  0.04584732  0.76744492  0.03736206    -0.57100
O237        O  0.04131413  0.78132794  0.13418563    -0.56280
C238        C  0.16068895  0.74631947  0.01190454    -0.08830
C239        C  0.15194539  0.74006642  0.47920916     0.07370
C240        C  0.11211646  0.73356982  0.46800699    -0.02590
C241        C  0.08218244  0.73394648  0.48943845    -0.07040
C242        C  0.09086886  0.73988295  0.02210890     0.06480
C243        C  0.13039683  0.74590715  0.03338254    -0.02070
Br244      Br  0.14587405  0.75702287  0.07738112    -0.01760
H245        H  0.19135843  0.75181372  0.02076292     0.10400
H246        H  0.05208366  0.72995411  0.48051849     0.08410
Br247      Br  0.09814010  0.72743034  0.42355338    -0.02190
C248        C  0.41857705  0.76430477  0.48926550    -0.08830
C249        C  0.41054410  0.76145486  0.02224292     0.07370
C250        C  0.37215997  0.75883335  0.03367109    -0.02590
C251        C  0.34220298  0.75804075  0.01206779    -0.07040
C252        C  0.35029239  0.76099326  0.47907613     0.06480
C253        C  0.38919517  0.76469570  0.46771245    -0.02070
Br254      Br  0.40283988  0.76755731  0.42308745    -0.01760
H255        H  0.44789172  0.76613962  0.48019534     0.10400
H256        H  0.31235534  0.75503256  0.02109370     0.08410
Br257      Br  0.35756892  0.75341885  0.07823883    -0.02190
C258        C  0.08580033  0.84436900  0.17992025    -0.08830
C259        C  0.08786589  0.85219353  0.14692646     0.07370
C260        C  0.12068349  0.89037844  0.13473808    -0.02590
C261        C  0.15053344  0.91943974  0.15549459    -0.07040
C262        C  0.14819624  0.91151724  0.18840620     0.06480
C263        C  0.11546511  0.87356137  0.20061666    -0.02070
Br264      Br  0.11207164  0.85829977  0.24482078    -0.01760
H265        H  0.06128173  0.81503371  0.18969864     0.10400
H266        H  0.17602580  0.94832122  0.14582301     0.08410
Br267      Br  0.12882835  0.90377136  0.09000493    -0.02190
C268        C  0.42162962  0.63530304  0.16977631    -0.08830
C269        C  0.40759700  0.64828375  0.14318773     0.07370
C270        C  0.36338086  0.63029365  0.13762976    -0.02590
C271        C  0.33409857  0.60057389  0.15888752    -0.07040
C272        C  0.34781999  0.58816892  0.18607765     0.06480
C273        C  0.39230242  0.60588639  0.19139718    -0.02070
Br274      Br  0.41544893  0.59421611  0.22871497    -0.01760
H275        H  0.45559769  0.64940965  0.17449360     0.10400
H276        H  0.30022822  0.58707406  0.15402776     0.08410
Br277      Br  0.34110272  0.64378149  0.10068853    -0.02190
C278        C  0.27460318  0.61006719  0.33378061    -0.08830
C279        C  0.23978280  0.58827451  0.31337502     0.07370
C280        C  0.20554772  0.59716456  0.31439988    -0.02590
C281        C  0.20725681  0.62748522  0.33515259    -0.07040
C282        C  0.24273108  0.64982967  0.35471288     0.06480
C283        C  0.27636067  0.64043753  0.35418852    -0.02070
Br284      Br  0.32463430  0.66630575  0.38197082    -0.01760
H285        H  0.30102502  0.60362682  0.33393915     0.10400
H286        H  0.18114957  0.63440201  0.33540344     0.08410
Br287      Br  0.15576555  0.57012678  0.28817908    -0.02190
C288        C  0.28268258  0.85861845  0.32350515    -0.08830
C289        C  0.26216996  0.85062387  0.35334152     0.07370
C290        C  0.24166954  0.87293949  0.36268392    -0.02590
C291        C  0.24164453  0.90269043  0.34210627    -0.07040
C292        C  0.26149486  0.91053034  0.31182662     0.06480
C293        C  0.28220068  0.88799971  0.30256386    -0.02070
Br294      Br  0.30713853  0.89288508  0.26096682    -0.01760
H295        H  0.29781417  0.84085241  0.31601009     0.10400
H296        H  0.22565443  0.91957703  0.34982156     0.08410
Br297      Br  0.21342715  0.86384236  0.40342518    -0.02190
O298        O  0.32207890  0.53569576  0.72773164    -0.57480
C299        C  0.25824809  0.94098557  0.79057934     0.75140
O300        O  0.21249281  0.53677358  0.77163989    -0.58640
C301        C  0.31472952  0.55765141  0.70820944     0.75120
C302        C  0.18163923  0.94204470  0.70910198     0.77510
Cd303      Cd  0.24839087  0.49902574  0.75009737     1.37470
O304        O  0.28415689  0.95946411  0.76772990    -0.57480
O305        O  0.22074376  0.95884488  0.70118014    -0.56290
C306        C  0.24126273  0.55730736  0.79170774     0.77470
O307        O  0.17297994  0.95258683  0.73560203    -0.58660
O308        O  0.22888544  0.95011833  0.79468655    -0.57110
O309        O  0.27685239  0.55191084  0.70817533    -0.57100
O310        O  0.27242113  0.55026303  0.79230201    -0.56280
O311        O  0.32582620  0.78136520  0.93277174    -0.57480
C312        C  0.25956729  0.81693141  0.87344511     0.75050
O313        O  0.21221550  0.68082524  0.88881812    -0.58640
C314        C  0.31697243  0.75819831  0.95719709     0.75120
C315        C  0.18559038  0.74264502  0.95730998     0.77510
Cd316      Cd  0.25159229  0.75027885  0.91396722     1.37470
O317        O  0.29127288  0.82020360  0.88879504    -0.57480
O318        O  0.22432187  0.77015359  0.96056488    -0.56290
C319        C  0.24477958  0.68347489  0.87462574     0.77470
O320        O  0.17742382  0.71776115  0.93446011    -0.58660
O321        O  0.22501833  0.78318327  0.87635795    -0.57110
O322        O  0.27785804  0.73222598  0.96203585    -0.57100
O323        O  0.27939249  0.71683321  0.87812282    -0.56280
O324        O  0.04562097  0.72106094  0.56869493    -0.57480
C325        C  0.43922052  0.68249906  0.62299767     0.75140
O326        O  0.04573322  0.82586324  0.59941361    -0.58640
C327        C  0.05968950  0.74272709  0.54346392     0.75120
C328        C  0.44157151  0.75903351  0.54378591     0.77510
Cd329      Cd  0.50084488  0.75180801  0.58529990     1.37470
O330        O  0.47404738  0.68455827  0.61398694    -0.57480
O331        O  0.45800511  0.73648994  0.53715133    -0.56290
C332        C  0.05729029  0.81889610  0.62608241     0.77470
O333        O  0.45319753  0.77916849  0.56953350    -0.58660
O334        O  0.43319993  0.71197247  0.61447871    -0.57110
O335        O  0.04584734  0.76744497  0.53736208    -0.57100
O336        O  0.04131416  0.78132798  0.63418563    -0.56280
C337        C  0.16068895  0.74631952  0.51190453    -0.08830
C338        C  0.15194542  0.74006642  0.97920916     0.07370
C339        C  0.11211651  0.73356986  0.96800699    -0.02590
C340        C  0.08218248  0.73394651  0.98943844    -0.07040
C341        C  0.09086884  0.73988296  0.52210890     0.06480
C342        C  0.13039683  0.74590721  0.53338253    -0.02070
Br343      Br  0.14587408  0.75702299  0.57738110    -0.01760
H344        H  0.19135844  0.75181381  0.52076290     0.10400
H345        H  0.05208372  0.72995418  0.98051848     0.08410
Br346      Br  0.09814018  0.72743045  0.92355337    -0.02190
C347        C  0.41857705  0.76430476  0.98926550    -0.08830
C348        C  0.41054410  0.76145488  0.52224291     0.07370
C349        C  0.37215997  0.75883337  0.53367109    -0.02590
C350        C  0.34220298  0.75804077  0.51206778    -0.07040
C351        C  0.35029239  0.76099326  0.97907614     0.06480
C352        C  0.38919517  0.76469570  0.96771246    -0.02070
Br353      Br  0.40283987  0.76755732  0.92308746    -0.01760
H354        H  0.44789172  0.76613961  0.98019534     0.10400
H355        H  0.31235534  0.75503258  0.52109368     0.08410
Br356      Br  0.35756893  0.75341889  0.57823882    -0.02190
C357        C  0.08580036  0.84436903  0.67992026    -0.08830
C358        C  0.08786592  0.85219356  0.64692647     0.07370
C359        C  0.12068351  0.89037848  0.63473808    -0.02590
C360        C  0.15053345  0.91943977  0.65549460    -0.07040
C361        C  0.14819626  0.91151727  0.68840621     0.06480
C362        C  0.11546514  0.87356140  0.70061667    -0.02070
Br363      Br  0.11207168  0.85829980  0.74482079    -0.01760
H364        H  0.06128176  0.81503374  0.68969865     0.10400
H365        H  0.17602581  0.94832127  0.64582302     0.08410
Br366      Br  0.12882836  0.90377140  0.59000494    -0.02190
C367        C  0.42162964  0.63530307  0.66977630    -0.08830
C368        C  0.40759702  0.64828379  0.64318774     0.07370
C369        C  0.36338087  0.63029370  0.63762978    -0.02590
C370        C  0.33409859  0.60057394  0.65888754    -0.07040
C371        C  0.34782001  0.58816895  0.68607766     0.06480
C372        C  0.39230244  0.60588641  0.69139718    -0.02070
Br373      Br  0.41544896  0.59421612  0.72871495    -0.01760
H374        H  0.45559771  0.64940967  0.67449359     0.10400
H375        H  0.30022823  0.58707411  0.65402779     0.08410
Br376      Br  0.34110272  0.64378155  0.60068856    -0.02190
C377        C  0.27460318  0.61006718  0.83378060    -0.08830
C378        C  0.23978280  0.58827450  0.81337502     0.07370
C379        C  0.20554772  0.59716454  0.81439987    -0.02590
C380        C  0.20725680  0.62748520  0.83515259    -0.07040
C381        C  0.24273107  0.64982965  0.85471287     0.06480
C382        C  0.27636066  0.64043751  0.85418852    -0.02070
Br383      Br  0.32463429  0.66630573  0.88197082    -0.01760
H384        H  0.30102502  0.60362682  0.83393915     0.10400
H385        H  0.18114956  0.63440199  0.83540343     0.08410
Br386      Br  0.15576555  0.57012676  0.78817907    -0.02190
C387        C  0.28268262  0.85861849  0.82350517    -0.08830
C388        C  0.26216995  0.85062387  0.85334152     0.07370
C389        C  0.24166948  0.87293945  0.86268391    -0.02590
C390        C  0.24164447  0.90269038  0.84210626    -0.07040
C391        C  0.26149485  0.91053033  0.81182662     0.06480
C392        C  0.28220072  0.88799974  0.80256388    -0.02070
Br393      Br  0.30713860  0.89288513  0.76096686    -0.01760
H394        H  0.29781425  0.84085247  0.81601013     0.10400
H395        H  0.22565435  0.91957697  0.84982154     0.08410
Br396      Br  0.21342706  0.86384229  0.90342516    -0.02190
O397        O  0.82207888  0.03569576  0.22773164    -0.57480
C398        C  0.75824806  0.44098556  0.29057935     0.75140
O399        O  0.71249280  0.03677357  0.27163986    -0.58640
C400        C  0.81472950  0.05765140  0.20820942     0.75120
C401        C  0.68163922  0.44204468  0.20910197     0.77510
Cd402      Cd  0.74839085  0.99902572  0.25009736     1.37470
O403        O  0.78415689  0.45946412  0.26772993    -0.57480
O404        O  0.72074374  0.45884485  0.20118014    -0.56290
C405        C  0.74126270  0.05730734  0.29170772     0.77470
O406        O  0.67297992  0.45258682  0.23560202    -0.58660
O407        O  0.72888538  0.45011828  0.29468652    -0.57110
O408        O  0.77685237  0.05191081  0.20817531    -0.57100
O409        O  0.77242109  0.05026300  0.29230200    -0.56280
O410        O  0.82582618  0.28136529  0.43277182    -0.57480
C411        C  0.75956726  0.31693140  0.37344514     0.75050
O412        O  0.71221548  0.18082522  0.38881811    -0.58640
C413        C  0.81697242  0.25819833  0.45719712     0.75120
C414        C  0.68559041  0.24264500  0.45730999     0.77510
Cd415      Cd  0.75159229  0.25027883  0.41396722     1.37470
O416        O  0.79127302  0.32020338  0.38879470    -0.57480
O417        O  0.72432190  0.27015356  0.46056490    -0.56290
C418        C  0.74477955  0.18347488  0.37462571     0.77470
O419        O  0.67742384  0.21776114  0.43446012    -0.58660
O420        O  0.72501815  0.28318348  0.37635833    -0.57110
O421        O  0.77785805  0.23222592  0.46203583    -0.57100
O422        O  0.77939245  0.21683320  0.37812278    -0.56280
O423        O  0.54562091  0.22106089  0.06869492    -0.57480
C424        C  0.93922050  0.18249905  0.12299767     0.75140
O425        O  0.54573320  0.32586323  0.09941361    -0.58640
C426        C  0.55968946  0.24272706  0.04346392     0.75120
C427        C  0.94157150  0.25903349  0.04378590     0.77510
Cd428      Cd  0.00084486  0.25180801  0.08529990     1.37470
O429        O  0.97404738  0.18455828  0.11398696    -0.57480
O430        O  0.95800511  0.23648994  0.03715132    -0.56290
C431        C  0.55729027  0.31889608  0.12608241     0.77470
O432        O  0.95319749  0.27916847  0.06953349    -0.58660
O433        O  0.93319990  0.21197245  0.11447869    -0.57110
O434        O  0.54584733  0.26744496  0.03736209    -0.57100
O435        O  0.54131414  0.28132797  0.13418563    -0.56280
C436        C  0.66068890  0.24631949  0.01190451    -0.08830
C437        C  0.65194544  0.24006641  0.47920918     0.07370
C438        C  0.61211653  0.23356985  0.46800700    -0.02590
C439        C  0.58218250  0.23394650  0.48943845    -0.07040
C440        C  0.59086879  0.23988291  0.02210889     0.06480
C441        C  0.63039678  0.24590718  0.03338252    -0.02070
Br442      Br  0.64587406  0.25702298  0.07738108    -0.01760
H443        H  0.69135840  0.25181379  0.02076287     0.10400
H444        H  0.55208374  0.22995416  0.48051848     0.08410
Br445      Br  0.59814020  0.22743041  0.42355338    -0.02190
C446        C  0.91857705  0.26430478  0.48926551    -0.08830
C447        C  0.91054409  0.26145486  0.02224289     0.07370
C448        C  0.87215994  0.25883332  0.03367105    -0.02590
C449        C  0.84220295  0.25804070  0.01206774    -0.07040
C450        C  0.85029239  0.26099328  0.47907617     0.06480
C451        C  0.88919515  0.26469572  0.46771248    -0.02070
Br452      Br  0.90283984  0.26755735  0.42308748    -0.01760
H453        H  0.94789172  0.26613963  0.48019534     0.10400
H454        H  0.81235531  0.25503250  0.02109364     0.08410
Br455      Br  0.85756887  0.25341882  0.07823879    -0.02190
C456        C  0.58580033  0.34436903  0.17992026    -0.08830
C457        C  0.58786590  0.35219355  0.14692646     0.07370
C458        C  0.62068350  0.39037846  0.13473808    -0.02590
C459        C  0.65053345  0.41943975  0.15549459    -0.07040
C460        C  0.64819625  0.41151725  0.18840620     0.06480
C461        C  0.61546510  0.37356139  0.20061667    -0.02070
Br462      Br  0.61207163  0.35829980  0.24482079    -0.01760
H463        H  0.56128172  0.31503374  0.18969865     0.10400
H464        H  0.67602582  0.44832123  0.14582301     0.08410
Br465      Br  0.62882836  0.40377136  0.09000493    -0.02190
C466        C  0.92162962  0.13530310  0.16977633    -0.08830
C467        C  0.90759700  0.14828378  0.14318774     0.07370
C468        C  0.86338086  0.13029366  0.13762975    -0.02590
C469        C  0.83409857  0.10057389  0.15888751    -0.07040
C470        C  0.84781999  0.08816894  0.18607765     0.06480
C471        C  0.89230242  0.10588645  0.19139720    -0.02070
Br472      Br  0.91544893  0.09421620  0.22871501    -0.01760
H473        H  0.95559769  0.14940973  0.17449363     0.10400
H474        H  0.80022822  0.08707404  0.15402774     0.08410
Br475      Br  0.84110272  0.14378147  0.10068850    -0.02190
C476        C  0.77460317  0.11006719  0.33378056    -0.08830
C477        C  0.73978277  0.08827448  0.31337500     0.07370
C478        C  0.70554767  0.09716450  0.31439987    -0.02590
C479        C  0.70725676  0.12748515  0.33515258    -0.07040
C480        C  0.74273104  0.14982964  0.35471285     0.06480
C481        C  0.77636065  0.14043752  0.35418848    -0.02070
Br482      Br  0.82463431  0.16630579  0.38197074    -0.01760
H483        H  0.80102502  0.10362685  0.33393910     0.10400
H484        H  0.68114950  0.13440193  0.33540344     0.08410
Br485      Br  0.65576547  0.07012667  0.28817910    -0.02190
C486        C  0.78268273  0.35861859  0.32350525    -0.08830
C487        C  0.76216992  0.35062387  0.35334155     0.07370
C488        C  0.74166932  0.37293935  0.36268388    -0.02590
C489        C  0.74164432  0.40269029  0.34210623    -0.07040
C490        C  0.76149482  0.41053032  0.31182663     0.06480
C491        C  0.78220081  0.38799982  0.30256394    -0.02070
Br492      Br  0.80713884  0.39288531  0.26096696    -0.01760
H493        H  0.79781446  0.34085265  0.31601024     0.10400
H494        H  0.72565411  0.41957681  0.34982147     0.08410
Br495      Br  0.71342679  0.36384213  0.40342509    -0.02190
O496        O  0.82207889  0.03569576  0.72773164    -0.57480
C497        C  0.75824812  0.44098559  0.79057935     0.75140
O498        O  0.71249283  0.03677362  0.77163989    -0.58640
C499        C  0.81472951  0.05765141  0.70820943     0.75120
C500        C  0.68163923  0.44204469  0.70910198     0.77510
Cd501      Cd  0.74839086  0.99902575  0.75009737     1.37470
O502        O  0.78415686  0.45946407  0.76772987    -0.57480
O503        O  0.72074375  0.45884489  0.70118013    -0.56290
C504        C  0.74126274  0.05730738  0.79170775     0.77470
O505        O  0.67297994  0.45258680  0.73560204    -0.58660
O506        O  0.72888550  0.45011839  0.79468659    -0.57110
O507        O  0.77685239  0.05191084  0.70817532    -0.57100
O508        O  0.77242112  0.05026303  0.79230202    -0.56280
O509        O  0.82582621  0.28136501  0.93277160    -0.57480
C510        C  0.75956730  0.31693140  0.87344508     0.75050
O511        O  0.71221553  0.18082523  0.88881816    -0.58640
C512        C  0.81697242  0.25819825  0.95719703     0.75120
C513        C  0.68559028  0.24264500  0.95730994     0.77510
Cd514      Cd  0.75159224  0.25027886  0.91396722     1.37470
O515        O  0.79127259  0.32020399  0.88879566    -0.57480
O516        O  0.72432176  0.27015360  0.96056484    -0.56290
C517        C  0.74477962  0.18347491  0.87462578     0.77470
O518        O  0.67742375  0.21776113  0.93446009    -0.58660
O519        O  0.72501862  0.28318288  0.87635729    -0.57110
O520        O  0.77785801  0.23222605  0.96203587    -0.57100
O521        O  0.77939251  0.21683324  0.87812285    -0.56280
O522        O  0.54562103  0.22106096  0.56869495    -0.57480
C523        C  0.93922053  0.18249904  0.62299766     0.75140
O524        O  0.54573323  0.32586323  0.59941360    -0.58640
C525        C  0.55968953  0.24272707  0.54346393     0.75120
C526        C  0.94157152  0.25903350  0.54378592     0.77510
Cd527      Cd  0.00084490  0.25180800  0.58529990     1.37470
O528        O  0.97404740  0.18455825  0.61398694    -0.57480
O529        O  0.95800511  0.23648993  0.53715133    -0.56290
C530        C  0.55729030  0.31889609  0.62608240     0.77470
O531        O  0.95319755  0.27916848  0.56953351    -0.58660
O532        O  0.93319994  0.21197244  0.61447870    -0.57110
O533        O  0.54584733  0.26744491  0.53736206    -0.57100
O534        O  0.54131417  0.28132797  0.63418563    -0.56280
C535        C  0.66068898  0.24631947  0.51190455    -0.08830
C536        C  0.65194532  0.24006638  0.97920914     0.07370
C537        C  0.61211638  0.23356976  0.96800698    -0.02590
C538        C  0.58218237  0.23394641  0.98943845    -0.07040
C539        C  0.59086889  0.23988295  0.52210891     0.06480
C540        C  0.63039685  0.24590716  0.53338255    -0.02070
Br541      Br  0.64587408  0.25702289  0.57738113    -0.01760
H542        H  0.69135846  0.25181373  0.52076293     0.10400
H543        H  0.55208358  0.22995403  0.98051850     0.08410
Br544      Br  0.59813999  0.22743025  0.92355337    -0.02190
C545        C  0.91857706  0.26430475  0.98926548    -0.08830
C546        C  0.91054410  0.26145488  0.52224293     0.07370
C547        C  0.87215997  0.25883336  0.53367111    -0.02590
C548        C  0.84220297  0.25804076  0.51206782    -0.07040
C549        C  0.85029238  0.26099320  0.97907609     0.06480
C550        C  0.88919518  0.26469567  0.96771242    -0.02070
Br551      Br  0.90283993  0.26755731  0.92308743    -0.01760
H552        H  0.94789174  0.26613962  0.98019533     0.10400
H553        H  0.81235533  0.25503256  0.52109373     0.08410
Br554      Br  0.85756893  0.25341884  0.57823885    -0.02190
C555        C  0.58580038  0.34436901  0.67992025    -0.08830
C556        C  0.58786592  0.35219356  0.64692646     0.07370
C557        C  0.62068349  0.39037849  0.63473808    -0.02590
C558        C  0.65053343  0.41943978  0.65549460    -0.07040
C559        C  0.64819626  0.41151726  0.68840621     0.06480
C560        C  0.61546515  0.37356138  0.70061666    -0.02070
Br561      Br  0.61207172  0.35829976  0.74482077    -0.01760
H562        H  0.56128180  0.31503371  0.68969864     0.10400
H563        H  0.67602578  0.44832128  0.64582303     0.08410
Br564      Br  0.62882831  0.40377144  0.59000494    -0.02190
C565        C  0.92162964  0.13530307  0.66977631    -0.08830
C566        C  0.90759702  0.14828377  0.64318773     0.07370
C567        C  0.86338088  0.13029367  0.63762976    -0.02590
C568        C  0.83409859  0.10057391  0.65888752    -0.07040
C569        C  0.84782001  0.08816894  0.68607765     0.06480
C570        C  0.89230244  0.10588642  0.69139719    -0.02070
Br571      Br  0.91544894  0.09421615  0.72871498    -0.01760
H572        H  0.95559771  0.14940968  0.67449361     0.10400
H573        H  0.80022824  0.08707407  0.65402776     0.08410
Br574      Br  0.84110274  0.14378150  0.60068852    -0.02190
C575        C  0.77460322  0.11006722  0.83378060    -0.08830
C576        C  0.73978282  0.08827452  0.81337503     0.07370
C577        C  0.70554773  0.09716455  0.81439991    -0.02590
C578        C  0.70725682  0.12748520  0.83515263    -0.07040
C579        C  0.74273111  0.14982968  0.85471290     0.06480
C580        C  0.77636071  0.14043756  0.85418852    -0.02070
Br581      Br  0.82463437  0.16630580  0.88197079    -0.01760
H582        H  0.80102507  0.10362687  0.83393912     0.10400
H583        H  0.68114957  0.13440198  0.83540349     0.08410
Br584      Br  0.65576553  0.07012674  0.78817914    -0.02190
C585        C  0.78268244  0.35861832  0.82350507    -0.08830
C586        C  0.76216997  0.35062385  0.85334149     0.07370
C587        C  0.74166968  0.37293958  0.86268395    -0.02590
C588        C  0.74164467  0.40269051  0.84210631    -0.07040
C589        C  0.76149489  0.41053035  0.81182662     0.06480
C590        C  0.78220057  0.38799961  0.80256380    -0.02070
Br591      Br  0.80713828  0.39288490  0.76096673    -0.01760
H592        H  0.79781392  0.34085220  0.81600998     0.10400
H593        H  0.72565466  0.41957719  0.84982164     0.08410
Br594      Br  0.71342740  0.36384249  0.90342525    -0.02190
O595        O  0.82207886  0.53569574  0.22773163    -0.57480
C596        C  0.75824811  0.94098557  0.29057934     0.75140
O597        O  0.71249282  0.53677361  0.27163988    -0.58640
C598        C  0.81472949  0.55765139  0.20820942     0.75120
C599        C  0.68163923  0.94204466  0.20910197     0.77510
Cd600      Cd  0.74839084  0.49902574  0.25009737     1.37470
O601        O  0.78415688  0.95946408  0.26772988    -0.57480
O602        O  0.72074375  0.95884485  0.20118013    -0.56290
C603        C  0.74126272  0.55730737  0.29170775     0.77470
O604        O  0.67297994  0.95258678  0.23560202    -0.58660
O605        O  0.72888547  0.95011834  0.29468656    -0.57110
O606        O  0.77685237  0.55191082  0.20817532    -0.57100
O607        O  0.77242110  0.55026301  0.29230203    -0.56280
O608        O  0.82582621  0.78136513  0.43277169    -0.57480
C609        C  0.75956731  0.81693141  0.37344510     0.75050
O610        O  0.71221551  0.68082525  0.38881814    -0.58640
C611        C  0.81697243  0.75819830  0.45719708     0.75120
C612        C  0.68559035  0.74264503  0.45730996     0.77510
Cd613      Cd  0.75159228  0.75027886  0.41396723     1.37470
O614        O  0.79127278  0.82020376  0.38879529    -0.57480
O615        O  0.72432183  0.77015361  0.46056486    -0.56290
C616        C  0.74477960  0.68347491  0.37462576     0.77470
O617        O  0.67742380  0.71776115  0.43446011    -0.58660
O618        O  0.72501846  0.78318312  0.37635769    -0.57110
O619        O  0.77785804  0.73222603  0.46203587    -0.57100
O620        O  0.77939251  0.71683322  0.37812284    -0.56280
O621        O  0.54562098  0.72106092  0.06869493    -0.57480
C622        C  0.93922051  0.68249901  0.12299765     0.75140
O623        O  0.54573319  0.82586321  0.09941361    -0.58640
C624        C  0.55968951  0.74272707  0.04346392     0.75120
C625        C  0.94157151  0.75903348  0.04378591     0.77510
Cd626      Cd  0.00084488  0.75180798  0.08529990     1.37470
O627        O  0.97404737  0.68455822  0.11398693    -0.57480
O628        O  0.95800510  0.73648991  0.03715133    -0.56290
C629        C  0.55729028  0.81889606  0.12608241     0.77470
O630        O  0.95319754  0.77916847  0.06953350    -0.58660
O631        O  0.93319992  0.71197242  0.11447870    -0.57110
O632        O  0.54584733  0.76744494  0.03736207    -0.57100
O633        O  0.54131416  0.78132794  0.13418562    -0.56280
C634        C  0.66068895  0.74631947  0.01190454    -0.08830
C635        C  0.65194538  0.74006642  0.47920915     0.07370
C636        C  0.61211645  0.73356982  0.46800699    -0.02590
C637        C  0.58218243  0.73394647  0.48943844    -0.07040
C638        C  0.59086886  0.73988295  0.02210890     0.06480
C639        C  0.63039682  0.74590715  0.03338254    -0.02070
Br640      Br  0.64587405  0.75702287  0.07738111    -0.01760
H641        H  0.69135843  0.75181372  0.02076291     0.10400
H642        H  0.55208365  0.72995411  0.48051848     0.08410
Br643      Br  0.59814009  0.72743033  0.42355337    -0.02190
C644        C  0.91857706  0.76430476  0.48926550    -0.08830
C645        C  0.91054410  0.76145486  0.02224291     0.07370
C646        C  0.87215997  0.75883335  0.03367109    -0.02590
C647        C  0.84220298  0.75804075  0.01206778    -0.07040
C648        C  0.85029240  0.76099325  0.47907613     0.06480
C649        C  0.88919517  0.76469569  0.46771245    -0.02070
Br650      Br  0.90283988  0.76755730  0.42308745    -0.01760
H651        H  0.94789173  0.76613961  0.48019534     0.10400
H652        H  0.81235534  0.75503256  0.02109369     0.08410
Br653      Br  0.85756892  0.75341885  0.07823883    -0.02190
C654        C  0.58580038  0.84436898  0.17992025    -0.08830
C655        C  0.58786591  0.85219352  0.14692647     0.07370
C656        C  0.62068348  0.89037846  0.13473808    -0.02590
C657        C  0.65053342  0.91943975  0.15549459    -0.07040
C658        C  0.64819626  0.91151723  0.18840620     0.06480
C659        C  0.61546515  0.87356135  0.20061666    -0.02070
Br660      Br  0.61207174  0.85829973  0.24482077    -0.01760
H661        H  0.56128179  0.81503367  0.18969864     0.10400
H662        H  0.67602577  0.94832125  0.14582302     0.08410
Br663      Br  0.62882829  0.90377140  0.09000494    -0.02190
C664        C  0.92162962  0.63530304  0.16977630    -0.08830
C665        C  0.90759700  0.64828374  0.14318772     0.07370
C666        C  0.86338086  0.63029365  0.13762975    -0.02590
C667        C  0.83409857  0.60057389  0.15888752    -0.07040
C668        C  0.84781999  0.58816891  0.18607764     0.06480
C669        C  0.89230242  0.60588639  0.19139718    -0.02070
Br670      Br  0.91544893  0.59421611  0.22871496    -0.01760
H671        H  0.95559768  0.64940964  0.17449359     0.10400
H672        H  0.80022821  0.58707406  0.15402776     0.08410
Br673      Br  0.84110272  0.64378149  0.10068852    -0.02190
C674        C  0.77460319  0.61006719  0.33378061    -0.08830
C675        C  0.73978281  0.58827451  0.31337503     0.07370
C676        C  0.70554773  0.59716456  0.31439988    -0.02590
C677        C  0.70725682  0.62748522  0.33515260    -0.07040
C678        C  0.74273109  0.64982967  0.35471289     0.06480
C679        C  0.77636068  0.64043752  0.35418853    -0.02070
Br680      Br  0.82463431  0.66630574  0.38197082    -0.01760
H681        H  0.80102503  0.60362682  0.33393916     0.10400
H682        H  0.68114958  0.63440201  0.33540345     0.08410
Br683      Br  0.65576555  0.57012679  0.28817909    -0.02190
C684        C  0.78268257  0.85861843  0.32350514    -0.08830
C685        C  0.76216998  0.85062387  0.35334151     0.07370
C686        C  0.74166957  0.87293950  0.36268392    -0.02590
C687        C  0.74164456  0.90269044  0.34210627    -0.07040
C688        C  0.76149488  0.91053034  0.31182662     0.06480
C689        C  0.78220068  0.88799969  0.30256385    -0.02070
Br690      Br  0.80713851  0.89288505  0.26096681    -0.01760
H691        H  0.79781415  0.84085238  0.31601008     0.10400
H692        H  0.72565447  0.91957706  0.34982157     0.08410
Br693      Br  0.71342720  0.86384237  0.40342519    -0.02190
O694        O  0.82207889  0.53569576  0.72773164    -0.57480
C695        C  0.75824809  0.94098557  0.79057934     0.75140
O696        O  0.71249281  0.53677359  0.77163989    -0.58640
C697        C  0.81472951  0.55765142  0.70820943     0.75120
C698        C  0.68163923  0.94204469  0.70910197     0.77510
Cd699      Cd  0.74839086  0.49902574  0.75009737     1.37470
O700        O  0.78415688  0.95946410  0.76772990    -0.57480
O701        O  0.72074376  0.95884488  0.70118014    -0.56290
C702        C  0.74126273  0.55730737  0.79170774     0.77470
O703        O  0.67297994  0.95258682  0.73560203    -0.58660
O704        O  0.72888544  0.95011833  0.79468655    -0.57110
O705        O  0.77685239  0.55191084  0.70817533    -0.57100
O706        O  0.77242112  0.55026303  0.79230201    -0.56280
O707        O  0.82582620  0.78136518  0.93277173    -0.57480
C708        C  0.75956729  0.81693141  0.87344511     0.75050
O709        O  0.71221550  0.68082524  0.88881813    -0.58640
C710        C  0.81697243  0.75819831  0.95719709     0.75120
C711        C  0.68559037  0.74264502  0.95730997     0.77510
Cd712      Cd  0.75159228  0.75027886  0.91396722     1.37470
O713        O  0.79127285  0.82020364  0.88879510    -0.57480
O714        O  0.72432186  0.77015359  0.96056488    -0.56290
C715        C  0.74477959  0.68347490  0.87462575     0.77470
O716        O  0.67742382  0.71776116  0.93446011    -0.58660
O717        O  0.72501836  0.78318324  0.87635789    -0.57110
O718        O  0.77785804  0.73222599  0.96203585    -0.57100
O719        O  0.77939249  0.71683322  0.87812282    -0.56280
O720        O  0.54562095  0.72106093  0.56869492    -0.57480
C721        C  0.93922052  0.68249906  0.62299767     0.75140
O722        O  0.54573320  0.82586324  0.59941361    -0.58640
C723        C  0.55968950  0.74272709  0.54346392     0.75120
C724        C  0.94157152  0.75903351  0.54378591     0.77510
Cd725      Cd  0.00084489  0.75180801  0.58529991     1.37470
O726        O  0.97404738  0.68455826  0.61398694    -0.57480
O727        O  0.95800511  0.73648994  0.53715133    -0.56290
C728        C  0.55729029  0.81889609  0.62608241     0.77470
O729        O  0.95319754  0.77916849  0.56953350    -0.58660
O730        O  0.93319993  0.71197247  0.61447871    -0.57110
O731        O  0.54584735  0.76744498  0.53736208    -0.57100
O732        O  0.54131417  0.78132798  0.63418562    -0.56280
C733        C  0.66068895  0.74631953  0.51190452    -0.08830
C734        C  0.65194541  0.74006642  0.97920916     0.07370
C735        C  0.61211650  0.73356987  0.96800699    -0.02590
C736        C  0.58218247  0.73394651  0.98943844    -0.07040
C737        C  0.59086884  0.73988296  0.52210889     0.06480
C738        C  0.63039683  0.74590722  0.53338253    -0.02070
Br739      Br  0.64587408  0.75702300  0.57738109    -0.01760
H740        H  0.69135844  0.75181382  0.52076289     0.10400
H741        H  0.55208371  0.72995418  0.98051848     0.08410
Br742      Br  0.59814017  0.72743045  0.92355336    -0.02190
C743        C  0.91857705  0.76430475  0.98926550    -0.08830
C744        C  0.91054410  0.76145488  0.52224291     0.07370
C745        C  0.87215998  0.75883337  0.53367108    -0.02590
C746        C  0.84220298  0.75804077  0.51206777    -0.07040
C747        C  0.85029240  0.76099326  0.97907614     0.06480
C748        C  0.88919517  0.76469570  0.96771245    -0.02070
Br749      Br  0.90283987  0.76755732  0.92308746    -0.01760
H750        H  0.94789172  0.76613960  0.98019534     0.10400
H751        H  0.81235535  0.75503258  0.52109368     0.08410
Br752      Br  0.85756893  0.75341890  0.57823882    -0.02190
C753        C  0.58580037  0.84436902  0.67992025    -0.08830
C754        C  0.58786591  0.85219356  0.64692647     0.07370
C755        C  0.62068350  0.89037848  0.63473808    -0.02590
C756        C  0.65053344  0.91943978  0.65549459    -0.07040
C757        C  0.64819626  0.91151727  0.68840620     0.06480
C758        C  0.61546514  0.87356139  0.70061666    -0.02070
Br759      Br  0.61207170  0.85829978  0.74482078    -0.01760
H760        H  0.56128178  0.81503372  0.68969864     0.10400
H761        H  0.67602579  0.94832127  0.64582302     0.08410
Br762      Br  0.62882833  0.90377141  0.59000494    -0.02190
C763        C  0.92162964  0.63530307  0.66977630    -0.08830
C764        C  0.90759701  0.64828379  0.64318774     0.07370
C765        C  0.86338087  0.63029370  0.63762978    -0.02590
C766        C  0.83409858  0.60057394  0.65888754    -0.07040
C767        C  0.84782001  0.58816895  0.68607766     0.06480
C768        C  0.89230244  0.60588641  0.69139718    -0.02070
Br769      Br  0.91544895  0.59421611  0.72871495    -0.01760
H770        H  0.95559770  0.64940966  0.67449359     0.10400
H771        H  0.80022823  0.58707412  0.65402778     0.08410
Br772      Br  0.84110272  0.64378156  0.60068856    -0.02190
C773        C  0.77460318  0.61006719  0.83378060    -0.08830
C774        C  0.73978280  0.58827450  0.81337502     0.07370
C775        C  0.70554772  0.59716455  0.81439988    -0.02590
C776        C  0.70725680  0.62748520  0.83515259    -0.07040
C777        C  0.74273107  0.64982966  0.85471288     0.06480
C778        C  0.77636066  0.64043752  0.85418852    -0.02070
Br779      Br  0.82463429  0.66630574  0.88197082    -0.01760
H780        H  0.80102502  0.60362682  0.83393915     0.10400
H781        H  0.68114956  0.63440200  0.83540344     0.08410
Br782      Br  0.65576554  0.57012677  0.78817908    -0.02190
C783        C  0.78268260  0.85861847  0.82350516    -0.08830
C784        C  0.76216995  0.85062387  0.85334152     0.07370
C785        C  0.74166950  0.87293946  0.86268391    -0.02590
C786        C  0.74164449  0.90269040  0.84210626    -0.07040
C787        C  0.76149485  0.91053034  0.81182662     0.06480
C788        C  0.78220070  0.88799972  0.80256387    -0.02070
Br789      Br  0.80713857  0.89288511  0.76096684    -0.01760
H790        H  0.79781421  0.84085245  0.81601011     0.10400
H791        H  0.72565437  0.91957699  0.84982155     0.08410
Br792      Br  0.71342709  0.86384232  0.90342517    -0.02190
loop_ 
_geom_bond_atom_site_label_1 
_geom_bond_atom_site_label_2 
_geom_bond_distance 
_geom_bond_site_symmetry_2 
_ccdc_geom_bond_type 
O1            C4   1.268       .  A
O1           Cd6   2.475   1_545  S
C2           O11   1.264       .  A
C2            O7   1.266       .  A
C2           C94   1.483       .  S
O3            C9   1.266       .  A
O3           Cd6   2.487   1_545  S
C4           O12   1.266       .  A
C4           C74   1.484       .  S
C5           O10   1.265       .  A
C5            O8   1.263       .  A
C5           C64   1.473       .  S
Cd6          O13   2.438   1_565  S
Cd6          O12   2.438   1_565  S
Cd6         O209   2.442       .  S
Cd6         O205   2.486       .  S
Cd6         O208   2.473       .  S
Cd6         O206   2.456       .  S
O7         Cd204   2.486       .  S
O8         Cd204   2.456       .  S
C9           O13   1.265       .  A
C9           C81   1.489       .  S
O10        Cd204   2.473       .  S
O11        Cd204   2.442       .  S
O14          C17   1.266       .  A
O14         Cd19   2.463       .  S
C15          O24   1.261       .  A
C15          O20   1.264       .  A
C15          C91   1.466       .  S
O16          C22   1.265       .  A
O16         Cd19   2.496       .  S
C17          O25   1.266       .  A
C17          C54   1.475       .  S
C18          O23   1.267       .  A
C18          O21   1.266       .  A
C18          C41   1.474       .  S
Cd19         O26   2.448       .  S
Cd19         O25   2.455       .  S
Cd19         O24   2.453       .  S
Cd19         O20   2.487       .  S
Cd19         O23   2.462       .  S
Cd19         O21   2.450       .  S
C22          O26   1.261       .  A
C22          C84   1.477       .  S
O27          C30   1.266       .  A
O27        Cd428   2.477       .  S
C28          O37   1.263       .  A
C28          O33   1.266       .  A
C28          C71   1.474       .  S
O29          C35   1.264       .  A
O29        Cd428   2.486       .  S
C30          O38   1.263       .  A
C30          C44   1.470       .  S
C31          O36   1.268       .  A
C31          O34   1.266       .  A
C31          C51   1.474       .  S
Cd32         O37   2.444       .  S
Cd32         O33   2.486       .  S
Cd32         O36   2.467       .  S
Cd32         O34   2.442       .  S
Cd32        O423   2.477       .  S
Cd32        O425   2.486       .  S
Cd32        O435   2.454       .  S
Cd32        O434   2.448       .  S
C35          O39   1.262       .  A
C35          C61   1.480       .  S
O38        Cd428   2.448       .  S
O39        Cd428   2.454       .  S
C40          C45   1.399       .  A
C40         C140   1.404   1_554  A
C40          H47   1.084       .  S
C41          C42   1.411       .  A
C41         C139   1.404       .  A
C42          C43   1.399       .  A
C42         Br49   1.919       .  S
C43         C143   1.402       .  A
C43          H48   1.084       .  S
C44          C45   1.407       .  A
C44         C142   1.402   1_554  A
C45         Br46   1.919       .  S
C50          C55   1.398       .  A
C50         C150   1.403       .  A
C50          H57   1.084       .  S
C51          C52   1.410       .  A
C51         C149   1.403   1_554  A
C52          C53   1.399       .  A
C52         Br59   1.919       .  S
C53         C153   1.403   1_554  A
C53          H58   1.084       .  S
C54          C55   1.410       .  A
C54         C152   1.403       .  A
C55         Br56   1.919       .  S
C60          C61   1.405       .  A
C60          C65   1.398       .  A
C60          H67   1.084       .  S
C61          C62   1.414       .  A
C62          C63   1.400       .  A
C62         Br69   1.920       .  S
C63          C64   1.402       .  A
C63          H68   1.084       .  S
C64          C65   1.408       .  A
C65         Br66   1.920       .  S
C70          C71   1.402       .  A
C70          C75   1.402       .  A
C70          H77   1.084       .  S
C71          C72   1.408       .  A
C72          C73   1.396       .  A
C72         Br79   1.920       .  S
C73          C74   1.406       .  A
C73          H78   1.084       .  S
C74          C75   1.415       .  A
C75         Br76   1.920       .  S
C80          C81   1.407       .  A
C80          C85   1.395       .  A
C80          H87   1.084       .  S
C81          C82   1.418       .  A
C82          C83   1.403       .  A
C82         Br89   1.920       .  S
C83          C84   1.403       .  A
C83          H88   1.084       .  S
C84          C85   1.408       .  A
C85         Br86   1.921       .  S
C90          C91   1.400       .  A
C90          C95   1.401       .  A
C90          H97   1.084       .  S
C91          C92   1.404       .  A
C92          C93   1.396       .  A
C92         Br99   1.920       .  S
C93          C94   1.407       .  A
C93          H98   1.084       .  S
C94          C95   1.416       .  A
C95         Br96   1.919       .  S
O100        C103   1.268       .  A
O100       Cd105   2.475   1_545  S
C101        O110   1.264       .  A
C101        O106   1.266       .  A
C101        C193   1.483       .  S
O102        C108   1.266       .  A
O102       Cd105   2.487   1_545  S
C103        O111   1.266       .  A
C103        C173   1.484       .  S
C104        O109   1.265       .  A
C104        O107   1.263       .  A
C104        C163   1.473       .  S
Cd105       O112   2.438   1_565  S
Cd105       O111   2.438   1_565  S
Cd105       O308   2.442       .  S
Cd105       O304   2.486       .  S
Cd105       O307   2.473       .  S
Cd105       O305   2.456       .  S
O106       Cd303   2.486       .  S
O107       Cd303   2.456       .  S
C108        O112   1.265       .  A
C108        C180   1.489       .  S
O109       Cd303   2.473       .  S
O110       Cd303   2.442       .  S
O113        C116   1.266       .  A
O113       Cd118   2.463       .  S
C114        O123   1.261       .  A
C114        O119   1.264       .  A
C114        C190   1.466       .  S
O115        C121   1.265       .  A
O115       Cd118   2.496       .  S
C116        O124   1.266       .  A
C116        C153   1.475       .  S
C117        O122   1.267       .  A
C117        O120   1.266       .  A
C117        C140   1.474       .  S
Cd118       O125   2.448       .  S
Cd118       O124   2.455       .  S
Cd118       O123   2.453       .  S
Cd118       O119   2.487       .  S
Cd118       O122   2.462       .  S
Cd118       O120   2.450       .  S
C121        O125   1.261       .  A
C121        C183   1.477       .  S
O126        C129   1.266       .  A
O126       Cd527   2.477       .  S
C127        O136   1.263       .  A
C127        O132   1.266       .  A
C127        C170   1.474       .  S
O128        C134   1.264       .  A
O128       Cd527   2.486       .  S
C129        O137   1.263       .  A
C129        C143   1.470       .  S
C130        O135   1.268       .  A
C130        O133   1.266       .  A
C130        C150   1.474       .  S
Cd131       O522   2.477       .  S
Cd131       O524   2.486       .  S
Cd131       O534   2.454       .  S
Cd131       O533   2.448       .  S
Cd131       O136   2.444       .  S
Cd131       O132   2.486       .  S
Cd131       O135   2.467       .  S
Cd131       O133   2.442       .  S
C134        O138   1.262       .  A
C134        C160   1.480       .  S
O137       Cd527   2.448       .  S
O138       Cd527   2.454       .  S
C139        C144   1.399       .  A
C139        H146   1.084       .  S
C140        C141   1.411       .  A
C141        C142   1.399       .  A
C141       Br148   1.919       .  S
C142        H147   1.084       .  S
C143        C144   1.407       .  A
C144       Br145   1.919       .  S
C149        C154   1.398       .  A
C149        H156   1.084       .  S
C150        C151   1.410       .  A
C151        C152   1.399       .  A
C151       Br158   1.919       .  S
C152        H157   1.084       .  S
C153        C154   1.410       .  A
C154       Br155   1.919       .  S
C159        C160   1.405       .  A
C159        C164   1.398       .  A
C159        H166   1.084       .  S
C160        C161   1.414       .  A
C161        C162   1.400       .  A
C161       Br168   1.920       .  S
C162        C163   1.402       .  A
C162        H167   1.084       .  S
C163        C164   1.408       .  A
C164       Br165   1.920       .  S
C169        C170   1.402       .  A
C169        C174   1.402       .  A
C169        H176   1.084       .  S
C170        C171   1.408       .  A
C171        C172   1.396       .  A
C171       Br178   1.920       .  S
C172        C173   1.406       .  A
C172        H177   1.084       .  S
C173        C174   1.415       .  A
C174       Br175   1.920       .  S
C179        C180   1.407       .  A
C179        C184   1.395       .  A
C179        H186   1.084       .  S
C180        C181   1.418       .  A
C181        C182   1.403       .  A
C181       Br188   1.920       .  S
C182        C183   1.403       .  A
C182        H187   1.084       .  S
C183        C184   1.408       .  A
C184       Br185   1.921       .  S
C189        C190   1.400       .  A
C189        C194   1.401       .  A
C189        H196   1.084       .  S
C190        C191   1.404       .  A
C191        C192   1.396       .  A
C191       Br198   1.920       .  S
C192        C193   1.407       .  A
C192        H197   1.084       .  S
C193        C194   1.416       .  A
C194       Br195   1.919       .  S
O199        C202   1.268       .  A
O199       Cd204   2.475       .  S
C200        O209   1.264       .  A
C200        O205   1.266       .  A
C200        C292   1.483       .  S
O201        C207   1.266       .  A
O201       Cd204   2.487       .  S
C202        O210   1.266       .  A
C202        C272   1.484       .  S
C203        O208   1.265       .  A
C203        O206   1.263       .  A
C203        C262   1.473       .  S
Cd204       O211   2.438       .  S
Cd204       O210   2.438       .  S
C207        O211   1.265       .  A
C207        C279   1.489       .  S
O212        C215   1.266       .  A
O212       Cd217   2.463       .  S
C213        O222   1.261       .  A
C213        O218   1.264       .  A
C213        C289   1.466       .  S
O214        C220   1.265       .  A
O214       Cd217   2.496       .  S
C215        O223   1.266       .  A
C215        C252   1.475       .  S
C216        O221   1.267       .  A
C216        O219   1.266       .  A
C216        C239   1.474       .  S
Cd217       O224   2.448       .  S
Cd217       O223   2.455       .  S
Cd217       O222   2.453       .  S
Cd217       O218   2.487       .  S
Cd217       O221   2.462       .  S
Cd217       O219   2.450       .  S
C220        O224   1.261       .  A
C220        C282   1.477       .  S
O225        C228   1.266       .  A
O225       Cd626   2.477       .  S
C226        O235   1.263       .  A
C226        O231   1.266       .  A
C226        C269   1.474       .  S
O227        C233   1.264       .  A
O227       Cd626   2.486       .  S
C228        O236   1.263       .  A
C228        C242   1.470       .  S
C229        O234   1.268       .  A
C229        O232   1.266       .  A
C229        C249   1.474       .  S
Cd230       O621   2.477       .  S
Cd230       O623   2.486       .  S
Cd230       O633   2.454       .  S
Cd230       O632   2.448       .  S
Cd230       O235   2.444       .  S
Cd230       O231   2.486       .  S
Cd230       O234   2.467       .  S
Cd230       O232   2.442       .  S
C233        O237   1.262       .  A
C233        C259   1.480       .  S
O236       Cd626   2.448       .  S
O237       Cd626   2.454       .  S
C238        C338   1.404   1_554  A
C238        C243   1.399       .  A
C238        H245   1.084       .  S
C239        C337   1.404       .  A
C239        C240   1.411       .  A
C240        C241   1.399       .  A
C240       Br247   1.919       .  S
C241        C341   1.402       .  A
C241        H246   1.084       .  S
C242        C340   1.402   1_554  A
C242        C243   1.407       .  A
C243       Br244   1.919       .  S
C248        C348   1.403       .  A
C248        C253   1.398       .  A
C248        H255   1.084       .  S
C249        C347   1.403   1_554  A
C249        C250   1.410       .  A
C250        C251   1.399       .  A
C250       Br257   1.919       .  S
C251        C351   1.403   1_554  A
C251        H256   1.084       .  S
C252        C350   1.403       .  A
C252        C253   1.410       .  A
C253       Br254   1.919       .  S
C258        C259   1.405       .  A
C258        C263   1.398       .  A
C258        H265   1.084       .  S
C259        C260   1.414       .  A
C260        C261   1.400       .  A
C260       Br267   1.920       .  S
C261        C262   1.402       .  A
C261        H266   1.084       .  S
C262        C263   1.408       .  A
C263       Br264   1.920       .  S
C268        C269   1.402       .  A
C268        C273   1.402       .  A
C268        H275   1.084       .  S
C269        C270   1.408       .  A
C270        C271   1.396       .  A
C270       Br277   1.920       .  S
C271        C272   1.406       .  A
C271        H276   1.084       .  S
C272        C273   1.415       .  A
C273       Br274   1.920       .  S
C278        C279   1.407       .  A
C278        C283   1.395       .  A
C278        H285   1.084       .  S
C279        C280   1.418       .  A
C280        C281   1.403       .  A
C280       Br287   1.920       .  S
C281        C282   1.403       .  A
C281        H286   1.084       .  S
C282        C283   1.408       .  A
C283       Br284   1.921       .  S
C288        C289   1.400       .  A
C288        C293   1.401       .  A
C288        H295   1.084       .  S
C289        C290   1.404       .  A
C290        C291   1.396       .  A
C290       Br297   1.920       .  S
C291        C292   1.407       .  A
C291        H296   1.084       .  S
C292        C293   1.416       .  A
C293       Br294   1.919       .  S
O298        C301   1.268       .  A
O298       Cd303   2.475       .  S
C299        O308   1.264       .  A
C299        O304   1.266       .  A
C299        C391   1.483       .  S
O300        C306   1.266       .  A
O300       Cd303   2.487       .  S
C301        O309   1.266       .  A
C301        C371   1.484       .  S
C302        O307   1.265       .  A
C302        O305   1.263       .  A
C302        C361   1.473       .  S
Cd303       O310   2.438       .  S
Cd303       O309   2.438       .  S
C306        O310   1.265       .  A
C306        C378   1.489       .  S
O311        C314   1.266       .  A
O311       Cd316   2.463       .  S
C312        O321   1.261       .  A
C312        O317   1.264       .  A
C312        C388   1.466       .  S
O313        C319   1.265       .  A
O313       Cd316   2.496       .  S
C314        O322   1.266       .  A
C314        C351   1.475       .  S
C315        O320   1.267       .  A
C315        O318   1.266       .  A
C315        C338   1.474       .  S
Cd316       O323   2.448       .  S
Cd316       O322   2.455       .  S
Cd316       O321   2.453       .  S
Cd316       O317   2.487       .  S
Cd316       O320   2.462       .  S
Cd316       O318   2.450       .  S
C319        O323   1.261       .  A
C319        C381   1.477       .  S
O324        C327   1.266       .  A
O324       Cd725   2.477       .  S
C325        O334   1.263       .  A
C325        O330   1.266       .  A
C325        C368   1.474       .  S
O326        C332   1.264       .  A
O326       Cd725   2.486       .  S
C327        O335   1.263       .  A
C327        C341   1.470       .  S
C328        O333   1.268       .  A
C328        O331   1.266       .  A
C328        C348   1.474       .  S
Cd329       O720   2.477       .  S
Cd329       O722   2.486       .  S
Cd329       O732   2.454       .  S
Cd329       O731   2.448       .  S
Cd329       O334   2.444       .  S
Cd329       O330   2.486       .  S
Cd329       O333   2.467       .  S
Cd329       O331   2.442       .  S
C332        O336   1.262       .  A
C332        C358   1.480       .  S
O335       Cd725   2.448       .  S
O336       Cd725   2.454       .  S
C337        C342   1.399       .  A
C337        H344   1.084       .  S
C338        C339   1.411       .  A
C339        C340   1.399       .  A
C339       Br346   1.919       .  S
C340        H345   1.084       .  S
C341        C342   1.407       .  A
C342       Br343   1.919       .  S
C347        C352   1.398       .  A
C347        H354   1.084       .  S
C348        C349   1.410       .  A
C349        C350   1.399       .  A
C349       Br356   1.919       .  S
C350        H355   1.084       .  S
C351        C352   1.410       .  A
C352       Br353   1.919       .  S
C357        C358   1.405       .  A
C357        C362   1.398       .  A
C357        H364   1.084       .  S
C358        C359   1.414       .  A
C359        C360   1.400       .  A
C359       Br366   1.920       .  S
C360        C361   1.402       .  A
C360        H365   1.084       .  S
C361        C362   1.408       .  A
C362       Br363   1.920       .  S
C367        C368   1.402       .  A
C367        C372   1.402       .  A
C367        H374   1.084       .  S
C368        C369   1.408       .  A
C369        C370   1.396       .  A
C369       Br376   1.920       .  S
C370        C371   1.406       .  A
C370        H375   1.084       .  S
C371        C372   1.415       .  A
C372       Br373   1.920       .  S
C377        C378   1.407       .  A
C377        C382   1.395       .  A
C377        H384   1.084       .  S
C378        C379   1.418       .  A
C379        C380   1.403       .  A
C379       Br386   1.920       .  S
C380        C381   1.403       .  A
C380        H385   1.084       .  S
C381        C382   1.408       .  A
C382       Br383   1.921       .  S
C387        C388   1.400       .  A
C387        C392   1.401       .  A
C387        H394   1.084       .  S
C388        C389   1.404       .  A
C389        C390   1.396       .  A
C389       Br396   1.920       .  S
C390        C391   1.407       .  A
C390        H395   1.084       .  S
C391        C392   1.416       .  A
C392       Br393   1.919       .  S
O397        C400   1.268       .  A
O397       Cd402   2.475   1_545  S
C398        O407   1.264       .  A
C398        O403   1.266       .  A
C398        C490   1.483       .  S
O399        C405   1.266       .  A
O399       Cd402   2.487   1_545  S
C400        O408   1.266       .  A
C400        C470   1.484       .  S
C401        O406   1.265       .  A
C401        O404   1.263       .  A
C401        C460   1.473       .  S
Cd402       O409   2.438   1_565  S
Cd402       O408   2.438   1_565  S
Cd402       O605   2.442       .  S
Cd402       O601   2.486       .  S
Cd402       O604   2.473       .  S
Cd402       O602   2.456       .  S
O403       Cd600   2.486       .  S
O404       Cd600   2.456       .  S
C405        O409   1.265       .  A
C405        C477   1.489       .  S
O406       Cd600   2.473       .  S
O407       Cd600   2.442       .  S
O410        C413   1.266       .  A
O410       Cd415   2.463       .  S
C411        O420   1.261       .  A
C411        O416   1.264       .  A
C411        C487   1.466       .  S
O412        C418   1.265       .  A
O412       Cd415   2.496       .  S
C413        O421   1.266       .  A
C413        C450   1.475       .  S
C414        O419   1.267       .  A
C414        O417   1.266       .  A
C414        C437   1.474       .  S
Cd415       O422   2.448       .  S
Cd415       O421   2.455       .  S
Cd415       O420   2.453       .  S
Cd415       O416   2.487       .  S
Cd415       O419   2.462       .  S
Cd415       O417   2.450       .  S
C418        O422   1.261       .  A
C418        C480   1.477       .  S
O423        C426   1.266       .  A
C424        O433   1.263       .  A
C424        O429   1.266       .  A
C424        C467   1.474       .  S
O425        C431   1.264       .  A
C426        O434   1.263       .  A
C426        C440   1.470       .  S
C427        O432   1.268       .  A
C427        O430   1.266       .  A
C427        C447   1.474       .  S
Cd428       O433   2.444   1_455  S
Cd428       O429   2.486   1_455  S
Cd428       O432   2.467   1_455  S
Cd428       O430   2.442   1_455  S
C431        O435   1.262       .  A
C431        C457   1.480       .  S
C436        C536   1.404   1_554  A
C436        C441   1.399       .  A
C436        H443   1.084       .  S
C437        C535   1.404       .  A
C437        C438   1.411       .  A
C438        C439   1.399       .  A
C438       Br445   1.919       .  S
C439        C539   1.402       .  A
C439        H444   1.084       .  S
C440        C538   1.402   1_554  A
C440        C441   1.407       .  A
C441       Br442   1.919       .  S
C446        C546   1.403       .  A
C446        C451   1.398       .  A
C446        H453   1.084       .  S
C447        C545   1.403   1_554  A
C447        C448   1.410       .  A
C448        C449   1.399       .  A
C448       Br455   1.919       .  S
C449        C549   1.403   1_554  A
C449        H454   1.084       .  S
C450        C548   1.403       .  A
C450        C451   1.410       .  A
C451       Br452   1.919       .  S
C456        C457   1.405       .  A
C456        C461   1.398       .  A
C456        H463   1.084       .  S
C457        C458   1.414       .  A
C458        C459   1.400       .  A
C458       Br465   1.920       .  S
C459        C460   1.402       .  A
C459        H464   1.084       .  S
C460        C461   1.408       .  A
C461       Br462   1.920       .  S
C466        C467   1.402       .  A
C466        C471   1.402       .  A
C466        H473   1.084       .  S
C467        C468   1.408       .  A
C468        C469   1.396       .  A
C468       Br475   1.920       .  S
C469        C470   1.406       .  A
C469        H474   1.084       .  S
C470        C471   1.415       .  A
C471       Br472   1.920       .  S
C476        C477   1.407       .  A
C476        C481   1.395       .  A
C476        H483   1.084       .  S
C477        C478   1.418       .  A
C478        C479   1.403       .  A
C478       Br485   1.920       .  S
C479        C480   1.403       .  A
C479        H484   1.084       .  S
C480        C481   1.408       .  A
C481       Br482   1.921       .  S
C486        C487   1.400       .  A
C486        C491   1.401       .  A
C486        H493   1.084       .  S
C487        C488   1.404       .  A
C488        C489   1.396       .  A
C488       Br495   1.920       .  S
C489        C490   1.407       .  A
C489        H494   1.084       .  S
C490        C491   1.416       .  A
C491       Br492   1.919       .  S
O496        C499   1.268       .  A
O496       Cd501   2.475   1_545  S
C497        O506   1.264       .  A
C497        O502   1.266       .  A
C497        C589   1.483       .  S
O498        C504   1.266       .  A
O498       Cd501   2.487   1_545  S
C499        O507   1.266       .  A
C499        C569   1.484       .  S
C500        O505   1.265       .  A
C500        O503   1.263       .  A
C500        C559   1.473       .  S
Cd501       O508   2.438   1_565  S
Cd501       O507   2.438   1_565  S
Cd501       O704   2.442       .  S
Cd501       O700   2.486       .  S
Cd501       O703   2.473       .  S
Cd501       O701   2.456       .  S
O502       Cd699   2.486       .  S
O503       Cd699   2.456       .  S
C504        O508   1.265       .  A
C504        C576   1.489       .  S
O505       Cd699   2.473       .  S
O506       Cd699   2.442       .  S
O509        C512   1.266       .  A
O509       Cd514   2.463       .  S
C510        O519   1.261       .  A
C510        O515   1.264       .  A
C510        C586   1.466       .  S
O511        C517   1.265       .  A
O511       Cd514   2.496       .  S
C512        O520   1.266       .  A
C512        C549   1.475       .  S
C513        O518   1.267       .  A
C513        O516   1.266       .  A
C513        C536   1.474       .  S
Cd514       O521   2.448       .  S
Cd514       O520   2.455       .  S
Cd514       O519   2.453       .  S
Cd514       O515   2.487       .  S
Cd514       O518   2.462       .  S
Cd514       O516   2.450       .  S
C517        O521   1.261       .  A
C517        C579   1.477       .  S
O522        C525   1.266       .  A
C523        O532   1.263       .  A
C523        O528   1.266       .  A
C523        C566   1.474       .  S
O524        C530   1.264       .  A
C525        O533   1.263       .  A
C525        C539   1.470       .  S
C526        O531   1.268       .  A
C526        O529   1.266       .  A
C526        C546   1.474       .  S
Cd527       O532   2.444   1_455  S
Cd527       O528   2.486   1_455  S
Cd527       O531   2.467   1_455  S
Cd527       O529   2.442   1_455  S
C530        O534   1.262       .  A
C530        C556   1.480       .  S
C535        C540   1.399       .  A
C535        H542   1.084       .  S
C536        C537   1.411       .  A
C537        C538   1.399       .  A
C537       Br544   1.919       .  S
C538        H543   1.084       .  S
C539        C540   1.407       .  A
C540       Br541   1.919       .  S
C545        C550   1.398       .  A
C545        H552   1.084       .  S
C546        C547   1.410       .  A
C547        C548   1.399       .  A
C547       Br554   1.919       .  S
C548        H553   1.084       .  S
C549        C550   1.410       .  A
C550       Br551   1.919       .  S
C555        C556   1.405       .  A
C555        C560   1.398       .  A
C555        H562   1.084       .  S
C556        C557   1.414       .  A
C557        C558   1.400       .  A
C557       Br564   1.920       .  S
C558        C559   1.402       .  A
C558        H563   1.084       .  S
C559        C560   1.408       .  A
C560       Br561   1.920       .  S
C565        C566   1.402       .  A
C565        C570   1.402       .  A
C565        H572   1.084       .  S
C566        C567   1.408       .  A
C567        C568   1.396       .  A
C567       Br574   1.920       .  S
C568        C569   1.406       .  A
C568        H573   1.084       .  S
C569        C570   1.415       .  A
C570       Br571   1.920       .  S
C575        C576   1.407       .  A
C575        C580   1.395       .  A
C575        H582   1.084       .  S
C576        C577   1.418       .  A
C577        C578   1.403       .  A
C577       Br584   1.920       .  S
C578        C579   1.403       .  A
C578        H583   1.084       .  S
C579        C580   1.408       .  A
C580       Br581   1.921       .  S
C585        C586   1.400       .  A
C585        C590   1.401       .  A
C585        H592   1.084       .  S
C586        C587   1.404       .  A
C587        C588   1.396       .  A
C587       Br594   1.920       .  S
C588        C589   1.407       .  A
C588        H593   1.084       .  S
C589        C590   1.416       .  A
C590       Br591   1.919       .  S
O595        C598   1.268       .  A
O595       Cd600   2.475       .  S
C596        O605   1.264       .  A
C596        O601   1.266       .  A
C596        C688   1.483       .  S
O597        C603   1.266       .  A
O597       Cd600   2.487       .  S
C598        O606   1.266       .  A
C598        C668   1.484       .  S
C599        O604   1.265       .  A
C599        O602   1.263       .  A
C599        C658   1.473       .  S
Cd600       O607   2.438       .  S
Cd600       O606   2.438       .  S
C603        O607   1.265       .  A
C603        C675   1.489       .  S
O608        C611   1.266       .  A
O608       Cd613   2.463       .  S
C609        O618   1.261       .  A
C609        O614   1.264       .  A
C609        C685   1.466       .  S
O610        C616   1.265       .  A
O610       Cd613   2.496       .  S
C611        O619   1.266       .  A
C611        C648   1.475       .  S
C612        O617   1.267       .  A
C612        O615   1.266       .  A
C612        C635   1.474       .  S
Cd613       O620   2.448       .  S
Cd613       O619   2.455       .  S
Cd613       O618   2.453       .  S
Cd613       O614   2.487       .  S
Cd613       O617   2.462       .  S
Cd613       O615   2.450       .  S
C616        O620   1.261       .  A
C616        C678   1.477       .  S
O621        C624   1.266       .  A
C622        O631   1.263       .  A
C622        O627   1.266       .  A
C622        C665   1.474       .  S
O623        C629   1.264       .  A
C624        O632   1.263       .  A
C624        C638   1.470       .  S
C625        O630   1.268       .  A
C625        O628   1.266       .  A
C625        C645   1.474       .  S
Cd626       O631   2.444   1_455  S
Cd626       O627   2.486   1_455  S
Cd626       O630   2.467   1_455  S
Cd626       O628   2.442   1_455  S
C629        O633   1.262       .  A
C629        C655   1.480       .  S
C634        C734   1.404   1_554  A
C634        C639   1.399       .  A
C634        H641   1.084       .  S
C635        C733   1.404       .  A
C635        C636   1.411       .  A
C636        C637   1.399       .  A
C636       Br643   1.919       .  S
C637        C737   1.402       .  A
C637        H642   1.084       .  S
C638        C736   1.402   1_554  A
C638        C639   1.407       .  A
C639       Br640   1.919       .  S
C644        C744   1.403       .  A
C644        C649   1.398       .  A
C644        H651   1.084       .  S
C645        C743   1.403   1_554  A
C645        C646   1.410       .  A
C646        C647   1.399       .  A
C646       Br653   1.919       .  S
C647        C747   1.403   1_554  A
C647        H652   1.084       .  S
C648        C746   1.403       .  A
C648        C649   1.410       .  A
C649       Br650   1.919       .  S
C654        C655   1.405       .  A
C654        C659   1.398       .  A
C654        H661   1.084       .  S
C655        C656   1.414       .  A
C656        C657   1.400       .  A
C656       Br663   1.920       .  S
C657        C658   1.402       .  A
C657        H662   1.084       .  S
C658        C659   1.408       .  A
C659       Br660   1.920       .  S
C664        C665   1.402       .  A
C664        C669   1.402       .  A
C664        H671   1.084       .  S
C665        C666   1.408       .  A
C666        C667   1.396       .  A
C666       Br673   1.920       .  S
C667        C668   1.406       .  A
C667        H672   1.084       .  S
C668        C669   1.415       .  A
C669       Br670   1.920       .  S
C674        C675   1.407       .  A
C674        C679   1.395       .  A
C674        H681   1.084       .  S
C675        C676   1.418       .  A
C676        C677   1.403       .  A
C676       Br683   1.920       .  S
C677        C678   1.403       .  A
C677        H682   1.084       .  S
C678        C679   1.408       .  A
C679       Br680   1.921       .  S
C684        C685   1.400       .  A
C684        C689   1.401       .  A
C684        H691   1.084       .  S
C685        C686   1.404       .  A
C686        C687   1.396       .  A
C686       Br693   1.920       .  S
C687        C688   1.407       .  A
C687        H692   1.084       .  S
C688        C689   1.416       .  A
C689       Br690   1.919       .  S
O694        C697   1.268       .  A
O694       Cd699   2.475       .  S
C695        O704   1.264       .  A
C695        O700   1.266       .  A
C695        C787   1.483       .  S
O696        C702   1.266       .  A
O696       Cd699   2.487       .  S
C697        O705   1.266       .  A
C697        C767   1.484       .  S
C698        O703   1.265       .  A
C698        O701   1.263       .  A
C698        C757   1.473       .  S
Cd699       O706   2.438       .  S
Cd699       O705   2.438       .  S
C702        O706   1.265       .  A
C702        C774   1.489       .  S
O707        C710   1.266       .  A
O707       Cd712   2.463       .  S
C708        O717   1.261       .  A
C708        O713   1.264       .  A
C708        C784   1.466       .  S
O709        C715   1.265       .  A
O709       Cd712   2.496       .  S
C710        O718   1.266       .  A
C710        C747   1.475       .  S
C711        O716   1.267       .  A
C711        O714   1.266       .  A
C711        C734   1.474       .  S
Cd712       O719   2.448       .  S
Cd712       O718   2.455       .  S
Cd712       O717   2.453       .  S
Cd712       O713   2.487       .  S
Cd712       O716   2.462       .  S
Cd712       O714   2.450       .  S
C715        O719   1.261       .  A
C715        C777   1.477       .  S
O720        C723   1.266       .  A
C721        O730   1.263       .  A
C721        O726   1.266       .  A
C721        C764   1.474       .  S
O722        C728   1.264       .  A
C723        O731   1.263       .  A
C723        C737   1.470       .  S
C724        O729   1.268       .  A
C724        O727   1.266       .  A
C724        C744   1.474       .  S
Cd725       O730   2.444   1_455  S
Cd725       O726   2.486   1_455  S
Cd725       O729   2.467   1_455  S
Cd725       O727   2.442   1_455  S
C728        O732   1.262       .  A
C728        C754   1.480       .  S
C733        C738   1.399       .  A
C733        H740   1.084       .  S
C734        C735   1.411       .  A
C735        C736   1.399       .  A
C735       Br742   1.919       .  S
C736        H741   1.084       .  S
C737        C738   1.407       .  A
C738       Br739   1.919       .  S
C743        C748   1.398       .  A
C743        H750   1.084       .  S
C744        C745   1.410       .  A
C745        C746   1.399       .  A
C745       Br752   1.919       .  S
C746        H751   1.084       .  S
C747        C748   1.410       .  A
C748       Br749   1.919       .  S
C753        C754   1.405       .  A
C753        C758   1.398       .  A
C753        H760   1.084       .  S
C754        C755   1.414       .  A
C755        C756   1.400       .  A
C755       Br762   1.920       .  S
C756        C757   1.402       .  A
C756        H761   1.084       .  S
C757        C758   1.408       .  A
C758       Br759   1.920       .  S
C763        C764   1.402       .  A
C763        C768   1.402       .  A
C763        H770   1.084       .  S
C764        C765   1.408       .  A
C765        C766   1.396       .  A
C765       Br772   1.920       .  S
C766        C767   1.406       .  A
C766        H771   1.084       .  S
C767        C768   1.415       .  A
C768       Br769   1.920       .  S
C773        C774   1.407       .  A
C773        C778   1.395       .  A
C773        H780   1.084       .  S
C774        C775   1.418       .  A
C775        C776   1.403       .  A
C775       Br782   1.920       .  S
C776        C777   1.403       .  A
C776        H781   1.084       .  S
C777        C778   1.408       .  A
C778       Br779   1.921       .  S
C783        C784   1.400       .  A
C783        C788   1.401       .  A
C783        H790   1.084       .  S
C784        C785   1.404       .  A
C785        C786   1.396       .  A
C785       Br792   1.920       .  S
C786        C787   1.407       .  A
C786        H791   1.084       .  S
C787        C788   1.416       .  A
C788       Br789   1.919       .  S
