geometry optimzed in LAMMPS
_audit_creation_date              2020-12-01 
_audit_creation_method            'lammps2cif' 
_symmetry_space_group_name_H-M    'P1' 
_symmetry_Int_Tables_number       1 
_symmetry_cell_setting            triclinic 
loop_ 
_symmetry_equiv_pos_as_xyz 
  x,y,z 
_cell_length_a                    35.52777955 
_cell_length_b                    35.38052699457076 
_cell_length_c                    35.420099242272045 
_cell_angle_alpha                 89.63453989911422 
_cell_angle_beta                  90.21180947729869 
_cell_angle_gamma                 89.94940476806033 
loop_ 
_atom_site_label 
_atom_site_type_symbol 
_atom_site_fract_x 
_atom_site_fract_y 
_atom_site_fract_z 
_atom_site_charge 
O1          O  0.77591559  0.38313028  0.79313506    -0.56800
C2          C  0.68386386  0.41659014  0.87452883     0.75900
O3          O  0.72122241  0.31110128  0.87578987    -0.57900
C4          C  0.79379076  0.35184422  0.79452620     0.75800
C5          C  0.81366634  0.38694662  0.89863495     0.78200
Cd6        Cd  0.74762256  0.37224413  0.85651514     1.37500
O7          O  0.69959708  0.41987065  0.84243521    -0.56800
O8          O  0.80041285  0.41167371  0.87604774    -0.55600
C9          C  0.70016314  0.30908872  0.84669145     0.78200
O10         O  0.79263720  0.35891130  0.90643703    -0.57900
O11         O  0.70160794  0.39832277  0.89988714    -0.56400
O12         O  0.78892148  0.33133065  0.82344583    -0.56400
O13         O  0.70124846  0.33643383  0.82354283    -0.55600
O14         O  0.79459652  0.62323133  0.93519345    -0.56800
C15         C  0.70740107  0.67545525  0.86542957     0.75900
O16         O  0.78249798  0.59748446  0.82069690    -0.57900
C17         C  0.81393626  0.59351664  0.92962273     0.75800
C18         C  0.68674832  0.56807882  0.89381774     0.78200
Cd19       Cd  0.75273492  0.61174628  0.88216367     1.37500
O20         O  0.72842851  0.67620253  0.89463579    -0.56800
O21         O  0.69924352  0.58984370  0.91932866    -0.55600
C22         C  0.80263096  0.62726143  0.82111674     0.78200
O23         O  0.70834376  0.56184588  0.86595414    -0.57900
O24         O  0.70797193  0.64577212  0.84578462    -0.56400
O25         O  0.80028272  0.56917703  0.90726861    -0.56400
O26         O  0.79917811  0.64856083  0.84939838    -0.55600
O27         O  0.72153901  0.66203757  0.10004717    -0.56800
C28         C  0.81671114  0.58573112  0.07897793     0.75900
O29         O  0.77444544  0.58679172  0.18388268    -0.57900
C30         C  0.70064401  0.66320738  0.12918077     0.75800
C31         C  0.68586381  0.55477673  0.10132122     0.78200
Cd32       Cd  0.74944887  0.60058742  0.11969889     1.37500
O33         O  0.79765600  0.61564265  0.07304072    -0.56800
O34         O  0.70282629  0.57392998  0.07619184    -0.55600
C35         C  0.79275195  0.61773820  0.18502636     0.78200
O36         O  0.70204287  0.55188182  0.13330676    -0.57900
O37         O  0.80156270  0.56024050  0.09921670    -0.56400
O38         O  0.70353605  0.63622080  0.15255078    -0.56400
O39         O  0.79017829  0.63933616  0.15657610    -0.55600
O40         O  0.70788226  0.39963296  0.10783014    -0.56800
C41         C  0.79519964  0.33941791  0.16311189     0.75900
O42         O  0.73051571  0.28407189  0.07877120    -0.57900
C43         C  0.68729916  0.39376585  0.07905265     0.75800
C44         C  0.81894417  0.36649220  0.05242399     0.78200
Cd45       Cd  0.75284632  0.34905044  0.09502671     1.37500
O46         O  0.77269359  0.36718200  0.15962800    -0.56800
O47         O  0.80157028  0.39178457  0.07067089    -0.55600
C48         C  0.70831971  0.28312462  0.10689728     0.78200
O49         O  0.80250926  0.33480968  0.04903426    -0.57900
O50         O  0.79764955  0.31734537  0.13535202    -0.56400
O51         O  0.70045971  0.37145377  0.05443429    -0.56400
O52         O  0.70747921  0.31197272  0.12765720    -0.55600
O53         O  0.80186635  0.76092457  0.38877242    -0.56800
C54         C  0.88452060  0.67383708  0.42421491     0.75900
O55         O  0.88452210  0.70892720  0.31645832    -0.57900
C56         C  0.80179073  0.77957174  0.35784293     0.75800
C57         C  0.90691743  0.80372677  0.39381582     0.78200
Cd58       Cd  0.86610843  0.73667281  0.37777338     1.37500
O59         O  0.85318098  0.69082441  0.42791134    -0.56800
O60         O  0.88510501  0.78921775  0.41822955    -0.55600
C61         C  0.85512375  0.68835900  0.31498957     0.78200
O62         O  0.91383530  0.78411033  0.36466699    -0.57900
O63         O  0.90920165  0.68983696  0.40384349    -0.56400
O64         O  0.83115665  0.77799771  0.33788032    -0.56400
O65         O  0.83248330  0.69052140  0.34234099    -0.55600
O66         O  0.86771829  0.68801250  0.57718457    -0.56800
C67         C  0.81667258  0.78226656  0.63173639     0.75900
O68         O  0.90009073  0.71474665  0.68953998    -0.57900
C69         C  0.89773273  0.66905179  0.58222333     0.75800
C70         C  0.92852433  0.80017087  0.60320369     0.78200
Cd71       Cd  0.88273887  0.73661276  0.62420712     1.37500
O72         O  0.81942418  0.75959432  0.60415768    -0.56800
O73         O  0.90910626  0.78247439  0.57896200    -0.55600
C74         C  0.87105826  0.69381529  0.69196175     0.78200
O75         O  0.93092434  0.78529629  0.63587947    -0.57900
O76         O  0.84422673  0.78345593  0.65434590    -0.56400
O77         O  0.92282679  0.68406789  0.60283201    -0.56400
O78         O  0.84890198  0.69396220  0.66400953    -0.55600
O79         O  0.07583057  0.77579067  0.61728256    -0.56800
C80         C  0.13573150  0.68698743  0.67480318     0.75900
O81         O  0.14178708  0.68121407  0.56120762    -0.57900
C82         C  0.08373574  0.79466563  0.58767842     0.75800
C83         C  0.18764997  0.77721107  0.62470766     0.78200
Cd84       Cd  0.12553312  0.72958171  0.60765321     1.37500
O85         O  0.10701439  0.70832844  0.67160920    -0.56800
O86         O  0.15834925  0.77477484  0.64464300    -0.55600
C87         C  0.11010606  0.66458840  0.56265727     0.78200
O88         O  0.18905471  0.75656007  0.59538019    -0.57900
O89         O  0.15760363  0.68519866  0.64680008    -0.56400
O90         O  0.10615631  0.77957548  0.56436593    -0.56400
O91         O  0.08423983  0.68085611  0.58112882    -0.55600
O92         O  0.06355327  0.78755080  0.34427792    -0.56800
C93         C  0.13294372  0.69381213  0.29661062     0.75900
O94         O  0.17380710  0.76673074  0.37404212    -0.57900
C95         C  0.06706775  0.80398578  0.37595811     0.75800
C96         C  0.09533259  0.67305888  0.39969219     0.78200
Cd97       Cd  0.11180056  0.73975170  0.35811502     1.37500
O98         O  0.10201425  0.71215274  0.29473276    -0.56800
O99         O  0.07191884  0.68635797  0.37586817    -0.55600
C100        C  0.17484674  0.78606496  0.34354731     0.78200
O101        O  0.12298822  0.69411658  0.40861457    -0.57900
O102        O  0.15234353  0.69725944  0.32640877    -0.56400
O103        O  0.08696427  0.78741399  0.40089594    -0.56400
O104        O  0.14670250  0.78385644  0.32171183    -0.55600
O105        O  0.61066632  0.17218098  0.76395143    -0.56800
C106        C  0.58719003  0.09470356  0.67477349     0.75900
O107        O  0.69250763  0.09053019  0.71470821    -0.57900
C108        C  0.63918601  0.17484617  0.78560579     0.75800
C109        C  0.61074916  0.06507826  0.80604705     0.78200
Cd110      Cd  0.62992789  0.10912081  0.74107545     1.37500
O111        O  0.58361673  0.12539203  0.69282880    -0.56800
O112        O  0.58592890  0.08345483  0.78776537    -0.55600
C113        C  0.69532105  0.12129466  0.69604063     0.78200
O114        O  0.64317890  0.06271784  0.79120111    -0.57900
O115        O  0.60568770  0.06838578  0.69081563    -0.56400
O116        O  0.66187158  0.14731145  0.78613080    -0.56400
O117        O  0.66904591  0.14499923  0.69983119    -0.55600
O118        O  0.57079825  0.83938845  0.69148786    -0.56800
C119        C  0.63744173  0.79735430  0.78664880     0.75900
O120        O  0.68119496  0.87718540  0.71199839    -0.57900
C121        C  0.57208266  0.87060941  0.67354958     0.75800
C122        C  0.59964063  0.90212446  0.80175061     0.78200
Cd123      Cd  0.61881435  0.85814781  0.73760958     1.37500
O124        O  0.60778647  0.79532367  0.76642010    -0.56800
O125        O  0.57749812  0.87701510  0.78915712    -0.55600
C126        C  0.68376237  0.84768840  0.69173456     0.78200
O127        O  0.62743224  0.91100295  0.78093321    -0.57900
O128        O  0.65736396  0.82673240  0.78302011    -0.56400
O129        O  0.59038040  0.89729608  0.68877429    -0.56400
O130        O  0.65642691  0.82487117  0.69289117    -0.55600
O131        O  0.38911723  0.80801761  0.76929404    -0.56800
C132        C  0.41653761  0.88570527  0.67651309     0.75900
O133        O  0.30965298  0.88382753  0.71484830    -0.57900
C134        C  0.35970604  0.80710378  0.78974694     0.75800
C135        C  0.39135539  0.91534249  0.80550527     0.78200
Cd136      Cd  0.37295312  0.87052212  0.74203972     1.37500
O137        O  0.42206042  0.85626963  0.69660473    -0.56800
O138        O  0.41621965  0.89580928  0.78893847    -0.55600
C139        C  0.30985023  0.85324534  0.69598779     0.78200
O140        O  0.35969381  0.91900812  0.78897852    -0.57900
O141        O  0.39520844  0.91096376  0.69015898    -0.56400
O142        O  0.33811152  0.83549059  0.78809768    -0.56400
O143        O  0.33859384  0.83237431  0.69910098    -0.55600
O144        O  0.43949290  0.12969283  0.69539078    -0.56800
C145        C  0.37398653  0.17842513  0.78565242     0.75900
O146        O  0.32702760  0.09747807  0.71271447    -0.57900
C147        C  0.43500164  0.09972510  0.67627331     0.75800
C148        C  0.40476151  0.07035050  0.80513082     0.78200
Cd149      Cd  0.38932483  0.11462323  0.73983693     1.37500
O150        O  0.40336721  0.17819569  0.76517398    -0.56800
O151        O  0.42931011  0.09265151  0.79164559    -0.55600
C152        C  0.32628568  0.12643852  0.69119204     0.78200
O153        O  0.37603154  0.06385676  0.78465598    -0.57900
O154        O  0.35309508  0.14956294  0.78427561    -0.56400
O155        O  0.41464273  0.07407555  0.69084173    -0.56400
O156        O  0.35401283  0.14869167  0.69313050    -0.55600
O157        O  0.67091135  0.86921268  0.26201847    -0.56800
C158        C  0.59026841  0.89656571  0.17186188     0.75900
O159        O  0.59468988  0.78908725  0.21006579    -0.57900
C160        C  0.67260408  0.83939931  0.28232864     0.75800
C161        C  0.56563226  0.86700811  0.30323239     0.78200
Cd162      Cd  0.60787839  0.85220720  0.23685896     1.37500
O163        O  0.61856281  0.90383078  0.19269539    -0.56800
O164        O  0.58401284  0.89302053  0.28675792    -0.55600
C165        C  0.62474040  0.78958452  0.19049287     0.78200
O166        O  0.56166962  0.83614119  0.28545007    -0.57900
O167        O  0.56660939  0.87292754  0.18475798    -0.56400
O168        O  0.64513910  0.81683476  0.28035250    -0.56400
O169        O  0.64529098  0.81862135  0.19292310    -0.55600
O170        O  0.63563593  0.05048194  0.18958946    -0.56800
C171        C  0.68679597  0.11781481  0.28157126     0.75900
O172        O  0.61089409  0.16160251  0.20398633    -0.57900
C173        C  0.60400009  0.05480844  0.17313307     0.75800
C174        C  0.58228171  0.08659109  0.30187366     0.78200
Cd175      Cd  0.62426796  0.10020674  0.23532287     1.37500
O176        O  0.68655139  0.08657977  0.26376280    -0.56800
O177        O  0.60429852  0.06155793  0.28889044    -0.55600
C178        C  0.64066234  0.15988479  0.18403406     0.78200
O179        O  0.57509016  0.11481608  0.28052152    -0.57900
O180        O  0.65871986  0.13945759  0.27712908    -0.56400
O181        O  0.57962222  0.07508706  0.18955799    -0.56400
O182        O  0.66158973  0.13131199  0.18888369    -0.55600
O183        O  0.41977908  0.84672866  0.28472070    -0.56800
C184        C  0.36788074  0.79542512  0.18863414     0.75900
O185        O  0.30951261  0.87698078  0.25598037    -0.57900
C186        C  0.41305672  0.87632928  0.30372595     0.75800
C187        C  0.39359212  0.90599527  0.17192844     0.78200
Cd188      Cd  0.37403333  0.86041130  0.23525437     1.37500
O189        O  0.39545439  0.79781661  0.21154077    -0.56800
O190        O  0.41898389  0.89014127  0.19173167    -0.55600
C191        C  0.30686968  0.84762420  0.27675708     0.78200
O192        O  0.36038226  0.90570600  0.18504233    -0.57900
O193        O  0.34466534  0.82244914  0.18833177    -0.56400
O194        O  0.39265189  0.90138453  0.28796449    -0.56400
O195        O  0.33454372  0.82516983  0.27701738    -0.55600
O196        O  0.39524420  0.17066449  0.20970654    -0.56800
C197        C  0.42897228  0.09816698  0.30544889     0.75900
O198        O  0.32177103  0.08970693  0.26349592    -0.57900
C199        C  0.36487069  0.16866415  0.19055498     0.75800
C200        C  0.40471484  0.06511180  0.17682529     0.78200
Cd201      Cd  0.38449537  0.10887405  0.23983642     1.37500
O202        O  0.42957924  0.12945848  0.28762551    -0.56800
O203        O  0.42662406  0.09057486  0.18915132    -0.55600
C204        C  0.31870645  0.11942556  0.28337211     0.78200
O205        O  0.37731101  0.05559853  0.19786770    -0.57900
O206        O  0.41271633  0.07061847  0.28943838    -0.56400
O207        O  0.34490412  0.13941867  0.19486411    -0.56400
O208        O  0.34591667  0.14239521  0.28280767    -0.55600
O209        O  0.29450398  0.56353105  0.85951430    -0.56800
C210        C  0.20157025  0.62552772  0.80855819     0.75900
O211        O  0.20364217  0.62523080  0.92368155    -0.57900
C212        C  0.31433909  0.57016702  0.88870220     0.75800
C213        C  0.29194065  0.67776965  0.85770236     0.78200
Cd214      Cd  0.24783643  0.61245078  0.87295324     1.37500
O215        O  0.22183670  0.59584987  0.81041133    -0.56800
O216        O  0.29054122  0.64938015  0.83625443    -0.55600
C217        C  0.18392182  0.59577176  0.91827902     0.78200
O218        O  0.27214790  0.67645736  0.88759156    -0.57900
O219        O  0.20291525  0.64761139  0.83645300    -0.56400
O220        O  0.29991637  0.59154594  0.91337011    -0.56400
O221        O  0.19753955  0.57114006  0.89628085    -0.55600
O222        O  0.20221596  0.35464939  0.89639627    -0.56800
C223        C  0.30205491  0.30655409  0.84766912     0.75900
O224        O  0.22967703  0.38263174  0.78742731    -0.57900
C225        C  0.18478450  0.38566184  0.89142506     0.75800
C226        C  0.31482432  0.41703601  0.87034957     0.78200
Cd227      Cd  0.25277649  0.36968950  0.85258953     1.37500
O228        O  0.27925871  0.30836493  0.87526927    -0.56800
O229        O  0.29678666  0.39992646  0.89618884    -0.55600
C230        C  0.21135508  0.35172822  0.78633153     0.78200
O231        O  0.30025974  0.41725981  0.83750547    -0.57900
O232        O  0.30153610  0.33366471  0.82430040    -0.56400
O233        O  0.20171181  0.41149830  0.87317709    -0.56400
O234        O  0.21319419  0.33063280  0.81517216    -0.55600
O235        O  0.30290102  0.55411314  0.12888389    -0.56800
C236        C  0.21118942  0.62226839  0.17580369     0.75900
O237        O  0.28653075  0.66266556  0.09262195    -0.57900
C238        C  0.31919275  0.55606311  0.09700134     0.75800
C239        C  0.18950167  0.58815294  0.07147459     0.78200
Cd240      Cd  0.25639658  0.60294279  0.11299800     1.37500
O241        O  0.22973749  0.59140000  0.17668963    -0.56800
O242        O  0.20509229  0.56237134  0.09115625    -0.55600
C243        C  0.30565319  0.66486477  0.12304580     0.78200
O244        O  0.20816353  0.61834770  0.06605324    -0.57900
O245        O  0.21475263  0.64291510  0.14678543    -0.56400
O246        O  0.30258343  0.57469490  0.07110462    -0.56400
O247        O  0.30133702  0.63876592  0.14716471    -0.55600
O248        O  0.29609834  0.40584518  0.10508274    -0.56800
C249        C  0.20332434  0.34452819  0.15931898     0.75900
O250        O  0.20552438  0.34352676  0.04367061    -0.57900
C251        C  0.31673154  0.39682359  0.07724451     0.75800
C252        C  0.29377995  0.29233894  0.11517956     0.78200
Cd253      Cd  0.25000046  0.35584841  0.09512798     1.37500
O254        O  0.22449255  0.37354678  0.15767988    -0.56800
O255        O  0.29298141  0.32255177  0.13400835    -0.55600
C256        C  0.18665501  0.37352823  0.04950825     0.78200
O257        O  0.27325751  0.29083223  0.08562113    -0.57900
O258        O  0.20417589  0.32228552  0.13152246    -0.56400
O259        O  0.30327193  0.37287511  0.05434546    -0.56400
O260        O  0.20090286  0.39737693  0.07200205    -0.55600
O261        O  0.90091056  0.25760077  0.67629439    -0.56800
C262        C  0.93485110  0.16723631  0.59432916     0.75900
O263        O  0.82555748  0.20539775  0.59694937    -0.57900
C264        C  0.87015371  0.27622982  0.67535774     0.75800
C265        C  0.90459274  0.29743414  0.57095652     0.78200
Cd266      Cd  0.88888664  0.23030506  0.61272971     1.37500
O267        O  0.93739328  0.18305585  0.62639738    -0.56800
O268        O  0.92811356  0.28455044  0.59487963    -0.55600
C269        C  0.82528069  0.18283316  0.62513745     0.78200
O270        O  0.87736156  0.27584651  0.56204509    -0.57900
O271        O  0.91575255  0.18428993  0.56908489    -0.56400
O272        O  0.84947193  0.27229454  0.64654284    -0.56400
O273        O  0.85447938  0.18202806  0.64563731    -0.55600
O274        O  0.08678354  0.18763584  0.60667803    -0.56800
C275        C  0.14755953  0.28032262  0.65729593     0.75900
O276        O  0.20040959  0.20800375  0.58169195    -0.57900
C277        C  0.09471437  0.16625269  0.57908272     0.75800
C278        C  0.11686992  0.29766841  0.54884128     0.78200
Cd279      Cd  0.13620418  0.23336320  0.59369914     1.37500
O280        O  0.11924471  0.25827440  0.65646862    -0.56800
O281        O  0.09223102  0.28047663  0.56828340    -0.55600
C282        C  0.20066812  0.18954941  0.61274670     0.78200
O283        O  0.14853711  0.28131657  0.54507522    -0.57900
O284        O  0.16889616  0.28038090  0.62881475    -0.56400
O285        O  0.11774190  0.17919690  0.55489444    -0.56400
O286        O  0.17173481  0.19208085  0.63323931    -0.55600
O287        O  0.85792426  0.28917203  0.41347609    -0.56800
C288        C  0.81017498  0.19225819  0.35213548     0.75900
O289        O  0.89001775  0.26331498  0.30311388    -0.57900
C290        C  0.88946562  0.30586958  0.41038777     0.75800
C291        C  0.91417871  0.17526634  0.38735651     0.78200
Cd292      Cd  0.87242579  0.24038773  0.36702097     1.37500
O293        O  0.80861782  0.21494554  0.37991680    -0.56800
O294        O  0.89221050  0.19065046  0.41093053    -0.55600
C295        C  0.85994745  0.28267680  0.29967376     0.78200
O296        O  0.92163301  0.19390162  0.35745961    -0.57900
O297        O  0.84000978  0.19254932  0.33281791    -0.56400
O298        O  0.91465506  0.28924919  0.39132980    -0.56400
O299        O  0.83757538  0.28237027  0.32734369    -0.55600
O300        O  0.07362698  0.18555795  0.33971582    -0.56800
C301        C  0.13709872  0.27926868  0.29034992     0.75900
O302        O  0.13454773  0.28077988  0.40263592    -0.57900
C303        C  0.07523956  0.16907841  0.37167788     0.75800
C304        C  0.18638853  0.18621703  0.34302299     0.78200
Cd305      Cd  0.12213640  0.23284491  0.35447421     1.37500
O306        O  0.10796256  0.25827735  0.29074107    -0.56800
O307        O  0.15968700  0.18954179  0.31957750    -0.55600
C308        C  0.10491929  0.29976486  0.39531048     0.78200
O309        O  0.18393508  0.20529214  0.37331291    -0.57900
O310        O  0.15816496  0.27803092  0.31918187    -0.56400
O311        O  0.09455357  0.18528027  0.39708140    -0.56400
O312        O  0.08084383  0.28442573  0.37374889    -0.55600
C313        C  0.53441918  0.51177812  0.89799471     0.03300
C314        C  0.53344717  0.47181350  0.89588847     0.03300
C315        C  0.49868255  0.45302983  0.89452680    -0.17200
C316        C  0.46484797  0.47352863  0.89582052     0.03300
C317        C  0.46583930  0.51342952  0.89848743     0.03300
C318        C  0.50059177  0.53224233  0.90009609    -0.17200
H319        H  0.50129521  0.56285792  0.90101014     0.05400
H320        H  0.49795352  0.42252559  0.89185321     0.05400
C321        C  0.53673760  0.49540078  0.07447318     0.03300
C322        C  0.53672394  0.45566608  0.06961158     0.03300
C323        C  0.50228024  0.43636463  0.06588378    -0.17200
C324        C  0.46791062  0.45600336  0.06831991     0.03300
C325        C  0.46802504  0.49576074  0.07289089     0.03300
C326        C  0.50242304  0.51507022  0.07608819    -0.17200
H327        H  0.50247341  0.54536297  0.08051012     0.05400
H328        H  0.50218908  0.40583709  0.06349622     0.05400
C329        C  0.51160101  0.88657537  0.52337650     0.03300
C330        C  0.47211589  0.89152125  0.52399756     0.03300
C331        C  0.45181784  0.89317037  0.48990642    -0.17200
C332        C  0.47058169  0.88961961  0.45525548     0.03300
C333        C  0.51016834  0.88529833  0.45472257     0.03300
C334        C  0.53039716  0.88358210  0.48877302    -0.17200
H335        H  0.56063316  0.87951846  0.48835596     0.05400
H336        H  0.42141141  0.89552454  0.49040244     0.05400
C337        C  0.52955859  0.08200539  0.52368005     0.03300
C338        C  0.48993864  0.08551401  0.52431223     0.03300
C339        C  0.46952541  0.08566970  0.49039979    -0.17200
C340        C  0.48834926  0.08312163  0.45579019     0.03300
C341        C  0.52810319  0.08054548  0.45501099     0.03300
C342        C  0.54845668  0.07949883  0.48904140    -0.17200
H343        H  0.57892178  0.07808149  0.48854594     0.05400
H344        H  0.43915458  0.08854908  0.49089546     0.05400
C345        C  0.91173737  0.51997667  0.51856105     0.03300
C346        C  0.90927866  0.52221157  0.47878257     0.03300
C347        C  0.90830154  0.48899120  0.45734428    -0.17200
C348        C  0.90976402  0.45344653  0.47513347     0.03300
C349        C  0.91217810  0.45110036  0.51501194     0.03300
C350        C  0.91368825  0.48443374  0.53640976    -0.17200
H351        H  0.91446886  0.48269444  0.56696428     0.05400
H352        H  0.90546506  0.49079286  0.42689235     0.05400
C353        C  0.09099802  0.51780345  0.49529638     0.03300
C354        C  0.08876298  0.51955829  0.45540004     0.03300
C355        C  0.08723166  0.48592565  0.43448499    -0.17200
C356        C  0.08899404  0.45064844  0.45290507     0.03300
C357        C  0.09119971  0.44897441  0.49275279     0.03300
C358        C  0.09226332  0.48253330  0.51362166    -0.17200
H359        H  0.09491109  0.48120489  0.54410721     0.05400
H360        H  0.08663884  0.48721269  0.40389947     0.05400
C361        C  0.00719160  0.95348296  0.40010315     0.03300
C362        C  0.96760487  0.95415258  0.40432479     0.03300
C363        C  0.94863497  0.98892855  0.40620621    -0.17200
C364        C  0.96864605  0.02299981  0.40282123     0.03300
C365        C  0.00816676  0.02237049  0.39835756     0.03300
C366        C  0.02715622  0.98761255  0.39716310    -0.17200
H367        H  0.05734828  0.98709568  0.39292849     0.05400
H368        H  0.91819667  0.98945105  0.40811173     0.05400
C369        C  0.99118626  0.94789205  0.57282597     0.03300
C370        C  0.03088556  0.94712395  0.57038749     0.03300
C371        C  0.05128387  0.98105311  0.56844174    -0.17200
C372        C  0.03254428  0.01595947  0.56990425     0.03300
C373        C  0.99271918  0.01683549  0.57189155     0.03300
C374        C  0.97237988  0.98279844  0.57341731    -0.17200
H375        H  0.94202644  0.98349486  0.57623416     0.05400
H376        H  0.08177390  0.98027768  0.56803202     0.05400
C377        C  0.41698415  0.01147429  0.95639405     0.03300
C378        C  0.41688205  0.97153902  0.95545776     0.03300
C379        C  0.41771788  0.95078094  0.98928395    -0.17200
C380        C  0.41826974  0.96935026  0.02416307     0.03300
C381        C  0.41772321  0.00938173  0.02510393     0.03300
C382        C  0.41795739  0.03018488  0.99119829    -0.17200
H383        H  0.41674753  0.06078653  0.99190801     0.05400
H384        H  0.41682423  0.92017148  0.98848521     0.05400
C385        C  0.58435335  0.00141652  0.95365111     0.03300
C386        C  0.58309363  0.96139122  0.95256280     0.03300
C387        C  0.57982060  0.94070620  0.98646114    -0.17200
C388        C  0.57960496  0.95935753  0.02139975     0.03300
C389        C  0.58143711  0.99930322  0.02238460     0.03300
C390        C  0.58362128  0.01998479  0.98852790    -0.17200
H391        H  0.58573137  0.05053192  0.98937189     0.05400
H392        H  0.57985818  0.91008532  0.98578327     0.05400
C393        C  0.96773265  0.39064348  0.99243605     0.03300
C394        C  0.96650245  0.39384282  0.95256358     0.03300
C395        C  0.00008953  0.39759575  0.93205725    -0.17200
C396        C  0.03503588  0.39682470  0.95072176     0.03300
C397        C  0.03625559  0.39169433  0.99035943     0.03300
C398        C  0.00266876  0.38936279  0.01100660    -0.17200
H399        H  0.00373539  0.38539267  0.04136195     0.05400
H400        H  0.99908260  0.39991311  0.90154166     0.05400
C401        C  0.96634211  0.57886168  0.98254582     0.03300
C402        C  0.96776528  0.57631559  0.02234884     0.03300
C403        C  0.00271385  0.57582723  0.04091320    -0.17200
C404        C  0.03620898  0.57807184  0.02009255     0.03300
C405        C  0.03474109  0.58126982  0.98025375     0.03300
C406        C  0.99978292  0.58105936  0.96167434    -0.22000
H407        H  0.99855468  0.58402821  0.93122045     0.05400
H408        H  0.00383492  0.57438206  0.07146660     0.05400
C409        C  0.03712233  0.07018453  0.35530340    -0.20200
C410        C  0.02903300  0.05822603  0.39219303    -0.08300
C411        C  0.03571088  0.08298522  0.42229139     0.30600
C412        C  0.05031000  0.11916626  0.41553711    -0.20200
C413        C  0.05751318  0.13166702  0.37848806    -0.08300
C414        C  0.05084843  0.10665156  0.34835461     0.30600
F415        F  0.05830936  0.11706511  0.31220392    -0.18800
H416        H  0.03154031  0.05163283  0.33173110     0.18900
H417        H  0.05553932  0.13760449  0.43927422     0.18900
F418        F  0.02717438  0.07240198  0.45808561    -0.18800
C419        C  0.13203651  0.36032369  0.41837748    -0.20200
C420        C  0.10006212  0.33906024  0.40878847    -0.08300
C421        C  0.06460138  0.35700599  0.40862196     0.30600
C422        C  0.06116751  0.39470247  0.42018373    -0.20200
C423        C  0.09309911  0.41526678  0.43109249    -0.08300
C424        C  0.12869689  0.39817599  0.42884007     0.30600
F425        F  0.16005701  0.41764470  0.43885618    -0.18800
H426        H  0.15980280  0.34769471  0.41753786     0.18900
H427        H  0.03346801  0.40730604  0.42228326     0.18900
F428        F  0.03317518  0.33785518  0.39835102    -0.18800
C429        C  0.93949822  0.08029922  0.43159848    -0.20200
C430        C  0.94841704  0.05939048  0.39932957    -0.08300
C431        C  0.94493028  0.07635757  0.36358660     0.30600
C432        C  0.93528082  0.11443299  0.36031135    -0.20200
C433        C  0.92753770  0.13599515  0.39251836    -0.08300
C434        C  0.92849782  0.11825303  0.42823843     0.30600
F435        F  0.91964060  0.13774143  0.45983560    -0.18800
H436        H  0.94236189  0.06760461  0.45935868     0.18900
H437        H  0.93332532  0.12693548  0.33238165     0.18900
F438        F  0.95263033  0.05641611  0.33191258    -0.18800
C439        C  0.93689185  0.39384664  0.44908213    -0.20200
C440        C  0.90606212  0.41843182  0.45258026    -0.08300
C441        C  0.87025277  0.40617808  0.44111128     0.30600
C442        C  0.86504985  0.36915630  0.42852882    -0.20200
C443        C  0.89563713  0.34410102  0.42594732    -0.08300
C444        C  0.93188324  0.35712582  0.43534647     0.30600
F445        F  0.96216803  0.33394055  0.43267016    -0.18800
H446        H  0.96458524  0.40270936  0.45833293     0.18900
H447        H  0.83702325  0.36011375  0.42057094     0.18900
F448        F  0.83990968  0.42921879  0.44458999    -0.18800
C449        C  0.07317596  0.34854649  0.52562450    -0.20200
C450        C  0.10992543  0.33632270  0.53412297    -0.08300
C451        C  0.13954670  0.36273896  0.53270859     0.30600
C452        C  0.13260167  0.40021596  0.52203136    -0.20200
C453        C  0.09623280  0.41194348  0.51199520    -0.08300
C454        C  0.06640435  0.38595242  0.51421402     0.30600
F455        F  0.03101452  0.39653511  0.50421794    -0.18800
H456        H  0.04979554  0.32898702  0.52731042     0.18900
H457        H  0.15593240  0.41981720  0.52005929     0.18900
F458        F  0.17512617  0.35262746  0.54257792    -0.18800
C459        C  0.08565498  0.10521470  0.54409490    -0.20200
C460        C  0.07986569  0.12714086  0.57666149    -0.08300
C461        C  0.06313786  0.10995063  0.60840143     0.30600
C462        C  0.05102749  0.07251759  0.60686274    -0.20200
C463        C  0.05425711  0.05162339  0.57352652    -0.08300
C464        C  0.07300820  0.06766893  0.54253853     0.30600
F465        F  0.07808440  0.04740950  0.51056916    -0.18800
H466        H  0.09962768  0.11724251  0.51969267     0.18900
H467        H  0.03739460  0.06022546  0.63133500     0.18900
F468        F  0.05856932  0.12911392  0.64114429    -0.18800
C469        C  0.94872190  0.10219751  0.61722387    -0.20200
C470        C  0.95022575  0.12900769  0.58782617    -0.08300
C471        C  0.96241515  0.11753721  0.55195274     0.30600
C472        C  0.97394711  0.08015324  0.54611088    -0.20200
C473        C  0.97290489  0.05355830  0.57572348    -0.08300
C474        C  0.95952023  0.06471628  0.61118451     0.30600
F475        F  0.95913846  0.03989431  0.64056107    -0.18800
H476        H  0.93866031  0.11018988  0.64488092     0.18900
H477        H  0.98500105  0.07217723  0.51887550     0.18900
F478        F  0.96453940  0.14276234  0.52304635    -0.18800
C479        C  0.94003456  0.35841904  0.56182862    -0.20200
C480        C  0.90709818  0.33685652  0.55655339    -0.08300
C481        C  0.87495173  0.35480490  0.54146308     0.30600
C482        C  0.87621148  0.39281913  0.53083181    -0.20200
C483        C  0.90961013  0.41365177  0.53403852    -0.08300
C484        C  0.94131797  0.39654427  0.55060295     0.30600
F485        F  0.97359703  0.41649116  0.55515169    -0.18800
H486        H  0.96484074  0.34572044  0.57447668     0.18900
H487        H  0.85124699  0.40584387  0.51886067     0.18900
F488        F  0.84190615  0.33595483  0.53769635    -0.18800
C489        C  0.19132001  0.34723434  0.22846256    -0.20200
C490        C  0.18018504  0.33512258  0.19254761    -0.08300
C491        C  0.14990707  0.30961046  0.18930227     0.30600
C492        C  0.13379425  0.29362562  0.22154875    -0.20200
C493        C  0.14773609  0.30262938  0.25741254    -0.08300
C494        C  0.17532912  0.33110141  0.26074802     0.30600
F495        F  0.18822873  0.34205196  0.29511119    -0.18800
H496        H  0.21416949  0.36721397  0.23161854     0.18900
H497        H  0.11214361  0.27236173  0.21829372     0.18900
F498        F  0.13709565  0.29863249  0.15492382    -0.18800
C499        C  0.37398481  0.42472497  0.10616838    -0.20200
C500        C  0.35578602  0.41120424  0.07371701    -0.08300
C501        C  0.37660397  0.40810606  0.03999421     0.30600
C502        C  0.41417496  0.42046898  0.03860628    -0.20200
C503        C  0.43169712  0.43508866  0.07096696    -0.08300
C504        C  0.41162886  0.43575104  0.10506300     0.30600
F505        F  0.42815247  0.44866106  0.13709179    -0.18800
H506        H  0.35919120  0.42624320  0.13281160     0.18900
H507        H  0.42912718  0.42000569  0.01198766     0.18900
F508        F  0.36050871  0.39399221  0.00826977    -0.18800
C509        C  0.13063130  0.34913697  0.01469697    -0.20200
C510        C  0.14846667  0.37909868  0.03345395    -0.08300
C511        C  0.12768027  0.41228261  0.04071858     0.30600
C512        C  0.09021005  0.41544730  0.02878580    -0.20200
C513        C  0.07290379  0.38571023  0.00947671    -0.08300
C514        C  0.09314964  0.35226004  0.00308896     0.30600
F515        F  0.07678794  0.32295707  0.98472289    -0.18800
H516        H  0.14551293  0.32297533  0.00946731     0.18900
H517        H  0.07508876  0.44160600  0.03339676     0.18900
F518        F  0.14343925  0.44169967  0.05935729    -0.18800
C519        C  0.36828589  0.52912846  0.05456836    -0.20200
C520        C  0.35716863  0.54017198  0.09085460    -0.08300
C521        C  0.38411649  0.54031354  0.12014761     0.30600
C522        C  0.42123178  0.52908895  0.11318848    -0.20200
C523        C  0.43182708  0.51636821  0.07734502    -0.08300
C524        C  0.40511996  0.51689638  0.04792828     0.30600
F525        F  0.41438601  0.50416853  0.01315928    -0.18800
H526        H  0.34822982  0.52939952  0.03144479     0.18900
H527        H  0.44127981  0.52835803  0.13632605     0.18900
F528        F  0.37481002  0.55195715  0.15535086    -0.18800
C529        C  0.09674975  0.54688763  0.03794616    -0.20200
C530        C  0.07317276  0.57871902  0.03955249    -0.08300
C531        C  0.08795996  0.61322370  0.05209871     0.30600
C532        C  0.12623640  0.61624533  0.06087079    -0.20200
C533        C  0.15008592  0.58463534  0.05859597    -0.08300
C534        C  0.13482775  0.54963539  0.04795904     0.30600
F535        F  0.15704888  0.51854750  0.04582738    -0.18800
H536        H  0.08592528  0.52029850  0.02748631     0.18900
H537        H  0.13721165  0.64330235  0.06989275     0.18900
F538        F  0.06594043  0.64458569  0.05312561    -0.18800
C539        C  0.08172876  0.36590642  0.90869579    -0.20200
C540        C  0.07070535  0.39792279  0.92896198    -0.08300
C541        C  0.09690806  0.42719530  0.93468499     0.30600
C542        C  0.13393759  0.42366845  0.92177565    -0.20200
C543        C  0.14558895  0.39039998  0.90402454    -0.08300
C544        C  0.11896483  0.36191713  0.89666292     0.30600
F545        F  0.12901035  0.33019386  0.87781019    -0.18800
H546        H  0.06208676  0.34293075  0.90433615     0.18900
H547        H  0.15389687  0.44615419  0.92711138     0.18900
F548        F  0.08729508  0.45799751  0.95501869    -0.18800
C549        C  0.38004376  0.43005863  0.84874477    -0.20200
C550        C  0.35282189  0.43251587  0.87734080    -0.08300
C551        C  0.36377854  0.44516591  0.91328306     0.30600
C552        C  0.40116821  0.45565959  0.92011086    -0.20200
C553        C  0.42813841  0.45397580  0.89122515    -0.08300
C554        C  0.41741421  0.44040197  0.85563195     0.30600
F555        F  0.44269602  0.43895351  0.82703289    -0.18800
H556        H  0.37247769  0.41952004  0.82107682     0.18900
H557        H  0.40884490  0.46662188  0.94754503     0.18900
F558        F  0.33815341  0.44850126  0.94139021    -0.18800
C559        C  0.18222063  0.33426163  0.68545130    -0.20200
C560        C  0.15722714  0.30374911  0.69012980    -0.08300
C561        C  0.14619299  0.29310321  0.72664605     0.30600
C562        C  0.16241169  0.31066882  0.75787486    -0.20200
C563        C  0.18956996  0.33925614  0.75321607    -0.08300
C564        C  0.19818869  0.35207620  0.71671584     0.30600
F565        F  0.22411159  0.37968146  0.71110657    -0.18800
H566        H  0.19085771  0.34315144  0.65747025     0.18900
H567        H  0.15497787  0.30063398  0.78583095     0.18900
F568        F  0.12221865  0.26376963  0.73230244    -0.18800
C569        C  0.37291064  0.54577692  0.85927928    -0.20200
C570        C  0.35364273  0.55644533  0.89210317    -0.08300
C571        C  0.37367589  0.55793661  0.92653607     0.30600
C572        C  0.41168831  0.54722166  0.92807392    -0.20200
C573        C  0.43019643  0.53505871  0.89542108    -0.08300
C574        C  0.41086699  0.53568626  0.86079149     0.30600
F575        F  0.42832448  0.52447419  0.82872295    -0.18800
H576        H  0.35864255  0.54548845  0.83221220     0.18900
H577        H  0.42618571  0.54660096  0.95498090     0.18900
F578        F  0.35635334  0.56865839  0.95883774    -0.18800
C579        C  0.09074401  0.62009845  0.96384237    -0.20200
C580        C  0.07010152  0.58676952  0.95876098    -0.08300
C581        C  0.08654568  0.55667843  0.93928603     0.30600
C582        C  0.12401210  0.55911084  0.92716028    -0.20200
C583        C  0.14555108  0.59177904  0.93424069    -0.08300
C584        C  0.12824393  0.62244562  0.95250038     0.30600
F585        F  0.14740976  0.65483220  0.95949729    -0.18800
H586        H  0.07824345  0.64378484  0.97841741     0.18900
H587        H  0.13612699  0.53545158  0.91219944     0.18900
F588        F  0.06648761  0.52481303  0.93276328    -0.18800
C589        C  0.30636805  0.22334042  0.11986540    -0.20200
C590        C  0.31672169  0.26041750  0.12867757    -0.08300
C591        C  0.34672551  0.26668018  0.15402202     0.30600
C592        C  0.36422722  0.23632245  0.17213653    -0.20200
C593        C  0.35176792  0.19942309  0.16573547    -0.08300
C594        C  0.32355449  0.19294754  0.13840485     0.30600
F595        F  0.31149781  0.15740858  0.13067020    -0.18800
H596        H  0.28349129  0.21794619  0.10032385     0.18900
H597        H  0.38599322  0.24189904  0.19286514     0.18900
F598        F  0.35818615  0.30223273  0.16252646    -0.18800
C599        C  0.24924962  0.11842614  0.29074523    -0.20200
C600        C  0.28460388  0.12889502  0.30470627    -0.08300
C601        C  0.28684250  0.15355612  0.33570112     0.30600
C602        C  0.25428828  0.17000163  0.35028105    -0.20200
C603        C  0.21920734  0.16248428  0.33380665    -0.08300
C604        C  0.21671871  0.13520503  0.30499830     0.30600
F605        F  0.18305377  0.12615025  0.28921497    -0.18800
H606        H  0.24694662  0.09943298  0.26700957     0.18900
H607        H  0.25684492  0.19052320  0.37267318     0.18900
F608        F  0.32070859  0.16334587  0.35058522    -0.18800
C609        C  0.44088410  0.05882449  0.11652560    -0.20200
C610        C  0.40882139  0.05007784  0.13818409    -0.08300
C611        C  0.37842853  0.03153306  0.12070072     0.30600
C612        C  0.38027476  0.02191607  0.08267457    -0.20200
C613        C  0.41297453  0.02885512  0.06167841    -0.08300
C614        C  0.44306297  0.04809801  0.07857437     0.30600
F615        F  0.47492234  0.05521753  0.05877552    -0.18800
H616        H  0.46434078  0.07383624  0.12900870     0.18900
H617        H  0.35681170  0.00707650  0.06997536     0.18900
F618        F  0.34666231  0.02292365  0.14011260    -0.18800
C619        C  0.45547958  0.12096554  0.40638484    -0.20200
C620        C  0.46707924  0.08549695  0.41988959    -0.08300
C621        C  0.46575906  0.05419095  0.39576681     0.30600
C622        C  0.45385927  0.05853807  0.35836517    -0.20200
C623        C  0.44392199  0.09434790  0.34420604    -0.08300
C624        C  0.44444951  0.12557732  0.36870582     0.30600
F625        F  0.43398871  0.16047805  0.35643472    -0.18800
H626        H  0.45713396  0.14548750  0.42447376     0.18900
H627        H  0.45311925  0.03400554  0.34023637     0.18900
F628        F  0.47780707  0.01984121  0.40798664    -0.18800
C629        C  0.37458308  0.91614252  0.10519580    -0.20200
C630        C  0.40149737  0.92118505  0.13389518    -0.08300
C631        C  0.43623179  0.93785004  0.12490158     0.30600
C632        C  0.44283163  0.95120425  0.08821910    -0.20200
C633        C  0.41533413  0.94725106  0.05982559    -0.08300
C634        C  0.38156557  0.92858192  0.06837786     0.30600
F635        F  0.35425891  0.92484506  0.04175545    -0.18800
H636        H  0.34802714  0.90242588  0.11130255     0.18900
H637        H  0.46861974  0.96636585  0.08235550     0.18900
F638        F  0.46298061  0.94279843  0.15187095    -0.18800
C639        C  0.42628989  0.91555183  0.36131537    -0.20200
C640        C  0.42624985  0.88018616  0.34328092    -0.08300
C641        C  0.43582492  0.84776356  0.36451551     0.30600
C642        C  0.44683044  0.85095031  0.40220411    -0.20200
C643        C  0.44913860  0.88640279  0.41943709    -0.08300
C644        C  0.43782728  0.91867826  0.39911980     0.30600
F645        F  0.43943356  0.95322113  0.41539627    -0.18800
H646        H  0.41810994  0.94084118  0.34594759     0.18900
H647        H  0.45551002  0.82579647  0.41753326     0.18900
F648        F  0.43440355  0.81280915  0.34900990    -0.18800
C649        C  0.37297359  0.72642208  0.17680020    -0.20200
C650        C  0.36090974  0.76221648  0.16478207    -0.08300
C651        C  0.33680738  0.76522908  0.13317463     0.30600
C652        C  0.32166865  0.73283566  0.11681240    -0.20200
C653        C  0.33000588  0.69720046  0.13202331    -0.08300
C654        C  0.35749339  0.69401407  0.16070217     0.30600
F655        F  0.36739912  0.65971155  0.17502687    -0.18800
H656        H  0.39185636  0.72347640  0.20072083     0.18900
H657        H  0.30097118  0.73587799  0.09446312     0.18900
F658        F  0.32573178  0.79953302  0.11977640    -0.18800
C659        C  0.57283285  0.05121039  0.36288645    -0.20200
C660        C  0.56837385  0.08450865  0.34125311    -0.08300
C661        C  0.55483327  0.11723020  0.35910202     0.30600
C662        C  0.54537813  0.11635466  0.39726200    -0.20200
C663        C  0.54787577  0.08272042  0.41824536    -0.08300
C664        C  0.56248912  0.05023642  0.40108480     0.30600
F665        F  0.56539304  0.01738341  0.42085009    -0.18800
H666        H  0.58402555  0.02584068  0.35015362     0.18900
H667        H  0.53416728  0.14165347  0.41013739     0.18900
F668        F  0.55102296  0.15034098  0.33990855    -0.18800
C669        C  0.62644480  0.04266376  0.10820899    -0.20200
C670        C  0.59726432  0.04029166  0.13477299    -0.08300
C671        C  0.56142716  0.02831362  0.12294456     0.30600
C672        C  0.55558983  0.01717097  0.08549914    -0.20200
C673        C  0.58505783  0.01885469  0.05916300    -0.08300
C674        C  0.62033441  0.03254077  0.07062362     0.30600
F675        F  0.64945894  0.03395896  0.04595372    -0.18800
H676        H  0.65397538  0.05290118  0.11649360     0.18900
H677        H  0.52850194  0.00584541  0.07729390     0.18900
F678        F  0.53253199  0.02614458  0.14781912    -0.18800
C679        C  0.71171784  0.15704745  0.33380406    -0.20200
C680        C  0.71837597  0.13015054  0.30550307    -0.08300
C681        C  0.75548972  0.11963086  0.29732578     0.30600
C682        C  0.78538306  0.13836741  0.31476573    -0.20200
C683        C  0.77871404  0.16756298  0.34078447    -0.08300
C684        C  0.74159398  0.17549591  0.35154923     0.30600
F685        F  0.73398390  0.20304272  0.37690160    -0.18800
H686        H  0.68320334  0.16519276  0.34087688     0.18900
H687        H  0.81383144  0.13136217  0.30637179     0.18900
F688        F  0.76294495  0.09377099  0.27020166    -0.18800
C689        C  0.54625665  0.90809436  0.35708613    -0.20200
C690        C  0.55187096  0.87174065  0.34233709    -0.08300
C691        C  0.54784340  0.84018016  0.36648801     0.30600
C692        C  0.53718047  0.84501027  0.40413939    -0.20200
C693        C  0.52985666  0.88120202  0.41818346    -0.08300
C694        C  0.53493056  0.91278651  0.39456840     0.30600
F695        F  0.52754842  0.94802095  0.40748853    -0.18800
H696        H  0.54995003  0.93287512  0.33937101     0.18900
H697        H  0.53290450  0.82036638  0.42192079     0.18900
F698        F  0.55471684  0.80467656  0.35393498    -0.18800
C699        C  0.55310136  0.90902970  0.11228928    -0.20200
C700        C  0.58681385  0.91245841  0.13311148    -0.08300
C701        C  0.61876885  0.92739147  0.11495447     0.30600
C702        C  0.61676980  0.93924396  0.07739062    -0.20200
C703        C  0.58279187  0.93760147  0.05725378    -0.08300
C704        C  0.55102808  0.92171731  0.07465669     0.30600
F705        F  0.51788755  0.91969161  0.05564838    -0.18800
H706        H  0.52829340  0.89687602  0.12523719     0.18900
H707        H  0.64148801  0.95155739  0.06439330     0.18900
F708        F  0.65226137  0.93023974  0.13326592    -0.18800
C709        C  0.35782384  0.27874317  0.81639713    -0.20200
C710        C  0.32688070  0.27400138  0.84066531    -0.08300
C711        C  0.31668723  0.23744112  0.85219996     0.30600
C712        C  0.33440717  0.20618665  0.83616961    -0.20200
C713        C  0.36270037  0.21098163  0.80880971    -0.08300
C714        C  0.37579390  0.24751742  0.80066654     0.30600
F715        F  0.40352132  0.25331769  0.77501808    -0.18800
H716        H  0.36655960  0.30676593  0.80762700     0.18900
H717        H  0.32435748  0.17820056  0.84346707     0.18900
F718        F  0.28733256  0.23176161  0.87598379    -0.18800
C719        C  0.22736391  0.13984018  0.65484057    -0.20200
C720        C  0.23307931  0.16712700  0.62631629    -0.08300
C721        C  0.26994897  0.17589967  0.61531064     0.30600
C722        C  0.30038920  0.16037395  0.63514368    -0.20200
C723        C  0.29453009  0.13557649  0.66581292    -0.08300
C724        C  0.25779018  0.12398587  0.67436075     0.30600
F725        F  0.25101897  0.09997578  0.70359290    -0.18800
H726        H  0.19912452  0.13223456  0.66346267     0.18900
H727        H  0.32859715  0.16925849  0.62771301     0.18900
F728        F  0.27660571  0.20176358  0.58767513    -0.18800
C729        C  0.44205734  0.05906300  0.86438269    -0.20200
C730        C  0.40806339  0.05538136  0.84414977    -0.08300
C731        C  0.37606676  0.04164660  0.86316326     0.30600
C732        C  0.37840715  0.03111881  0.90113236    -0.20200
C733        C  0.41276305  0.03297188  0.92063426    -0.08300
C734        C  0.44442802  0.04783295  0.90232383     0.30600
F735        F  0.47791809  0.04983788  0.92070453    -0.18800
H736        H  0.46689919  0.07031308  0.85074230     0.18900
H737        H  0.35379883  0.01944502  0.91487555     0.18900
F738        F  0.34236768  0.03853999  0.84527139    -0.18800
C739        C  0.47271466  0.12504337  0.57941118    -0.20200
C740        C  0.47046119  0.09026487  0.56081951    -0.08300
C741        C  0.45630076  0.05869233  0.58012799     0.30600
C742        C  0.44605114  0.06156661  0.61810605    -0.20200
C743        C  0.44972010  0.09604738  0.63739348    -0.08300
C744        C  0.46269285  0.12801040  0.61737669     0.30600
F745        F  0.46526763  0.16228024  0.63419779    -0.18800
H746        H  0.48382153  0.14961952  0.56482224     0.18900
H747        H  0.43520365  0.03674349  0.63244179     0.18900
F748        F  0.45364595  0.02487241  0.56251461    -0.18800
C749        C  0.37629043  0.93993911  0.90801928    -0.20200
C750        C  0.41227495  0.95192956  0.91891822    -0.08300
C751        C  0.44140614  0.95223037  0.89220635     0.30600
C752        C  0.43452072  0.94078254  0.85508149    -0.20200
C753        C  0.39812822  0.93021869  0.84375256    -0.08300
C754        C  0.36904044  0.92970431  0.87064971     0.30600
F755        F  0.33374161  0.91859369  0.86103099    -0.18800
H756        H  0.35334080  0.94045155  0.92806983     0.18900
H757        H  0.45742634  0.94090857  0.83497798     0.18900
F758        F  0.47598588  0.96527514  0.90170721    -0.18800
C759        C  0.44532990  0.92435758  0.58030744    -0.20200
C760        C  0.45229950  0.89070685  0.56074513    -0.08300
C761        C  0.44785930  0.85599771  0.57954502     0.30600
C762        C  0.43786780  0.85497368  0.61758392    -0.20200
C763        C  0.43123927  0.88849467  0.63753914    -0.08300
C764        C  0.43459213  0.92337594  0.61840160     0.30600
F765        F  0.42857053  0.95640489  0.63670526    -0.18800
H766        H  0.44974568  0.95133930  0.56644086     0.18900
H767        H  0.43467676  0.82770953  0.63131559     0.18900
F768        F  0.45480736  0.82307199  0.56137996    -0.18800
C769        C  0.32283890  0.77866913  0.84230925    -0.20200
C770        C  0.34911338  0.77415399  0.81301870    -0.08300
C771        C  0.36051008  0.73762543  0.80299481     0.30600
C772        C  0.34324434  0.70626195  0.81956390    -0.20200
C773        C  0.31479456  0.71078772  0.84671154    -0.08300
C774        C  0.30596512  0.74724455  0.85931086     0.30600
F775        F  0.27900830  0.75271277  0.88578382    -0.18800
H776        H  0.31394429  0.80664744  0.85076313     0.18900
H777        H  0.35090264  0.67835517  0.80979314     0.18900
F778        F  0.38587128  0.73214544  0.77498520    -0.18800
C779        C  0.55259712  0.84312799  0.61184585    -0.20200
C780        C  0.55592293  0.87492675  0.63525509    -0.08300
C781        C  0.54817262  0.91095457  0.62005820     0.30600
C782        C  0.53648389  0.91481213  0.58252508    -0.20200
C783        C  0.53251701  0.88300584  0.55945222    -0.08300
C784        C  0.54133994  0.84711781  0.57412696     0.30600
F785        F  0.53742311  0.81585733  0.55243957    -0.18800
H786        H  0.55930365  0.81516814  0.62260150     0.18900
H787        H  0.52891537  0.94254842  0.57177843     0.18900
F788        F  0.55099074  0.94234924  0.64169771    -0.18800
C789        C  0.56250092  0.90931003  0.86151843    -0.20200
C790        C  0.59490288  0.91779561  0.84022096    -0.08300
C791        C  0.62472232  0.93705764  0.85792163     0.30600
C792        C  0.62178262  0.94800148  0.89557494    -0.20200
C793        C  0.58860507  0.94159896  0.91604796    -0.08300
C794        C  0.55937539  0.92105713  0.89914535     0.30600
F795        F  0.52768093  0.91293456  0.91880412    -0.18800
H796        H  0.53956061  0.89350746  0.84906624     0.18900
H797        H  0.64504952  0.96291956  0.90848716     0.18900
F798        F  0.65705896  0.94492614  0.83916580    -0.18800
C799        C  0.56038239  0.02276870  0.89059351    -0.20200
C800        C  0.58888211  0.02349036  0.91816287    -0.08300
C801        C  0.62410891  0.03883683  0.90886526     0.30600
C802        C  0.63125402  0.05113469  0.87195256    -0.20200
C803        C  0.60301027  0.04962261  0.84409647    -0.08300
C804        C  0.56707935  0.03633824  0.85402573     0.30600
F805        F  0.53895242  0.03502880  0.82803898    -0.18800
H806        H  0.53344896  0.01017590  0.89705144     0.18900
H807        H  0.65887251  0.06213761  0.86516847     0.18900
F808        F  0.65237574  0.03929710  0.93475281    -0.18800
C809        C  0.56158233  0.11878396  0.57372197    -0.20200
C810        C  0.55079418  0.08350503  0.55963154    -0.08300
C811        C  0.55256102  0.05158498  0.58335544     0.30600
C812        C  0.56417668  0.05519598  0.62098573    -0.20200
C813        C  0.57315299  0.09087093  0.63567736    -0.08300
C814        C  0.57222397  0.12263621  0.61150019     0.30600
F815        F  0.58198762  0.15740236  0.62423119    -0.18800
H816        H  0.55960720  0.14376268  0.55593843     0.18900
H817        H  0.56529869  0.03027284  0.63889424     0.18900
F818        F  0.54138362  0.01733434  0.57049677    -0.18800
C819        C  0.76321616  0.11484729  0.67891556    -0.20200
C820        C  0.72772058  0.13066570  0.67174059    -0.08300
C821        C  0.72415366  0.15890767  0.64365219     0.30600
C822        C  0.75600745  0.17349096  0.62582525    -0.20200
C823        C  0.79190148  0.16049291  0.63593855    -0.08300
C824        C  0.79518670  0.12972432  0.66129372     0.30600
F825        F  0.82945149  0.11532563  0.67057318    -0.18800
H826        H  0.76654823  0.09274385  0.69993746     0.18900
H827        H  0.75272931  0.19683574  0.60617750     0.18900
F828        F  0.69001899  0.17383604  0.63470452    -0.18800
C829        C  0.05887848  0.57384909  0.42073842    -0.20200
C830        C  0.09123810  0.55676280  0.43596282    -0.08300
C831        C  0.12468186  0.57777805  0.43830235     0.30600
C832        C  0.12507847  0.61594128  0.42813832    -0.20200
C833        C  0.09254972  0.63363629  0.41385685    -0.08300
C834        C  0.05958116  0.61189555  0.40925677     0.30600
F835        F  0.02790907  0.62742553  0.39423895    -0.18800
H836        H  0.03290606  0.55809987  0.41887908     0.18900
H837        H  0.15118046  0.63143852  0.43072201     0.18900
F838        F  0.15680466  0.56154478  0.45149624    -0.18800
C839        C  0.05074161  0.86864812  0.35301122    -0.20200
C840        C  0.05128193  0.84203655  0.38263541    -0.08300
C841        C  0.04019277  0.85339923  0.41889715     0.30600
C842        C  0.02794953  0.89047382  0.42507094    -0.20200
C843        C  0.02696729  0.91686969  0.39528841    -0.08300
C844        C  0.03897405  0.90582436  0.35928789     0.30600
F845        F  0.03744785  0.93051077  0.32982200    -0.18800
H846        H  0.05986649  0.86073634  0.32500492     0.18900
H847        H  0.01794270  0.89831474  0.45279229     0.18900
F848        F  0.03980347  0.82825970  0.44794317    -0.18800
C849        C  0.23751778  0.84981800  0.28580810    -0.20200
C850        C  0.27304882  0.83851861  0.29883719    -0.08300
C851        C  0.27573118  0.81485304  0.33088311     0.30600
C852        C  0.24330297  0.80003398  0.34741045    -0.20200
C853        C  0.20785471  0.80845116  0.33210832    -0.08300
C854        C  0.20506335  0.83487308  0.30221924     0.30600
F855        F  0.17107291  0.84492819  0.28763305    -0.18800
H856        H  0.23487331  0.86833316  0.26149636     0.18900
H857        H  0.24610664  0.78018907  0.37063592     0.18900
F858        F  0.30977423  0.80486013  0.34536851    -0.18800
C859        C  0.15749114  0.66057439  0.19882808    -0.20200
C860        C  0.18687774  0.63499706  0.20680863    -0.08300
C861        C  0.19473536  0.62527602  0.24444127     0.30600
C862        C  0.17530546  0.64308111  0.27356809    -0.20200
C863        C  0.14748017  0.67041315  0.26562173    -0.08300
C864        C  0.13766569  0.67794858  0.22793944     0.30600
F865        F  0.11091949  0.70400686  0.21916041    -0.18800
H866        H  0.15073649  0.66817358  0.16990583     0.18900
H867        H  0.18314489  0.63660433  0.30248117     0.18900
F868        F  0.22294905  0.60080906  0.25317627    -0.18800
C869        C  0.21136896  0.82973608  0.66455330    -0.20200
C870        C  0.21853810  0.80222548  0.63688438    -0.08300
C871        C  0.25562943  0.79648744  0.62477046     0.30600
C872        C  0.28516834  0.81538153  0.64263638    -0.20200
C873        C  0.27815884  0.84066396  0.67232328    -0.08300
C874        C  0.24088185  0.84900570  0.68204793     0.30600
F875        F  0.23306878  0.87322223  0.71054676    -0.18800
H876        H  0.18289744  0.83507739  0.67400393     0.18900
H877        H  0.31379527  0.80888602  0.63442995     0.18900
F878        F  0.26365871  0.77070973  0.59774907    -0.18800
C879        C  0.15229184  0.66527051  0.77766069    -0.20200
C880        C  0.17868902  0.63566372  0.77516573    -0.08300
C881        C  0.18587570  0.61946616  0.73985839     0.30600
C882        C  0.16943883  0.63484952  0.70741433    -0.20200
C883        C  0.14529277  0.66624172  0.70963635    -0.08300
C884        C  0.13554704  0.68042758  0.74518126     0.30600
F885        F  0.11250891  0.71087429  0.74836918    -0.18800
H886        H  0.14599955  0.67800970  0.80464677     0.18900
H887        H  0.17710844  0.62333582  0.68023079     0.18900
F888        F  0.21089481  0.59072751  0.73622852    -0.18800
C889        C  0.06395327  0.57847723  0.51885575    -0.20200
C890        C  0.09432786  0.55311836  0.51745528    -0.08300
C891        C  0.12952473  0.56440614  0.53155215     0.30600
C892        C  0.13459438  0.60111952  0.54510953    -0.20200
C893        C  0.10440805  0.62682983  0.54584850    -0.08300
C894        C  0.06875487  0.61491850  0.53328049     0.30600
F895        F  0.03896131  0.63891636  0.53362763    -0.18800
H896        H  0.03671644  0.57033662  0.50755466     0.18900
H897        H  0.16207944  0.60935890  0.55537095     0.18900
F898        F  0.15948426  0.54061499  0.53016108    -0.18800
C899        C  0.06323910  0.85597378  0.61436944    -0.20200
C900        C  0.07039209  0.83386251  0.58238439    -0.08300
C901        C  0.06914057  0.85098602  0.54643102     0.30600
C902        C  0.05893066  0.88905429  0.54257272    -0.20200
C903        C  0.05073818  0.91063831  0.57456198    -0.08300
C904        C  0.05402235  0.89415401  0.61056557     0.30600
F905        F  0.04661337  0.91468251  0.64193646    -0.18800
H906        H  0.06533304  0.84382698  0.64243011     0.18900
H907        H  0.05589250  0.90129449  0.51464130     0.18900
F908        F  0.07689045  0.83070279  0.51505936    -0.18800
C909        C  0.94744451  0.86477124  0.62352960    -0.20200
C910        C  0.94491571  0.83778891  0.59467062    -0.08300
C911        C  0.95450922  0.84856422  0.55760261     0.30600
C912        C  0.96725618  0.88533535  0.54997121    -0.20200
C913        C  0.97017422  0.91205813  0.57902913    -0.08300
C914        C  0.95955054  0.90163173  0.61577356     0.30600
F915        F  0.96258445  0.92668762  0.64448322    -0.18800
H916        H  0.93949982  0.85744844  0.65215694     0.18900
H917        H  0.97616841  0.89263006  0.52162974     0.18900
F918        F  0.95277525  0.82322342  0.52905983    -0.18800
C919        C  0.94060074  0.57537728  0.55135939    -0.20200
C920        C  0.90827682  0.55509286  0.54100965    -0.08300
C921        C  0.87279858  0.57212746  0.54493571     0.30600
C922        C  0.86978868  0.60946292  0.55732009    -0.20200
C923        C  0.90209353  0.63031299  0.56688801    -0.08300
C924        C  0.93756551  0.61259920  0.56452418     0.30600
F925        F  0.96941276  0.63155823  0.57381740    -0.18800
H926        H  0.96810785  0.56299787  0.54771433     0.18900
H927        H  0.84216720  0.62194904  0.55962676     0.18900
F928        F  0.84111612  0.55316056  0.53494984    -0.18800
C929        C  0.78529755  0.83625849  0.66354475    -0.20200
C930        C  0.78272052  0.80508194  0.63917509    -0.08300
C931        C  0.74709521  0.79317199  0.62686176     0.30600
C932        C  0.71473852  0.80957731  0.64194355    -0.20200
C933        C  0.71735965  0.83821986  0.66924247    -0.08300
C934        C  0.75290827  0.85293601  0.67833948     0.30600
F935        F  0.75662915  0.88104528  0.70398003    -0.18800
H936        H  0.81253342  0.84635736  0.67291010     0.18900
H937        H  0.68757325  0.79818414  0.63397243     0.18900
F938        F  0.74339579  0.76344927  0.60309687    -0.18800
C939        C  0.92776096  0.62266328  0.44693299    -0.20200
C940        C  0.89097978  0.63554087  0.43974746    -0.08300
C941        C  0.86088464  0.60978674  0.44233741     0.30600
C942        C  0.86757932  0.57205752  0.45212666    -0.20200
C943        C  0.90413311  0.55952210  0.46031037    -0.08300
C944        C  0.93429567  0.58504288  0.45754355     0.30600
F945        F  0.96984758  0.57373393  0.46605785    -0.18800
H946        H  0.95143377  0.64180913  0.44448749     0.18900
H947        H  0.84398379  0.55283258  0.45480964     0.18900
F948        F  0.82510097  0.62074442  0.43428335    -0.18800
C949        C  0.93226593  0.86244089  0.36482080    -0.20200
C950        C  0.92139808  0.84275236  0.39755117    -0.08300
C951        C  0.92137597  0.86194590  0.43233213     0.30600
C952        C  0.93417949  0.89939713  0.43436379    -0.20200
C953        C  0.94615635  0.91837246  0.40165240    -0.08300
C954        C  0.94393660  0.89999249  0.36671941     0.30600
F955        F  0.95468969  0.91800544  0.33457752    -0.18800
H956        H  0.93140384  0.84885830  0.33752931     0.18900
H957        H  0.93610586  0.91309557  0.46153618     0.18900
F958        F  0.90987727  0.84433644  0.46440368    -0.18800
C959        C  0.73268307  0.78988172  0.35541120    -0.20200
C960        C  0.76877764  0.80068371  0.34395532    -0.08300
C961        C  0.77275233  0.82847147  0.31550798     0.30600
C962        C  0.74105300  0.84315267  0.29715122    -0.20200
C963        C  0.70513133  0.82988156  0.30643886    -0.08300
C964        C  0.70105595  0.80406536  0.33664298     0.30600
F965        F  0.66657368  0.79129350  0.34707010    -0.18800
H966        H  0.72898576  0.76867377  0.37724981     0.18900
H967        H  0.74477904  0.86311029  0.27417463     0.18900
F968        F  0.80732653  0.84025236  0.30424736    -0.18800
C969        C  0.59334845  0.43620929  0.10639960    -0.20200
C970        C  0.57283752  0.43446284  0.07254970    -0.08300
C971        C  0.58974362  0.41819317  0.04076821     0.30600
C972        C  0.62727318  0.40564379  0.04258766    -0.20200
C973        C  0.64861880  0.40967064  0.07597379    -0.08300
C974        C  0.63099628  0.42507665  0.10796103     0.30600
F975        F  0.64992864  0.42928456  0.14102083    -0.18800
H976        H  0.58057711  0.44812557  0.13136934     0.18900
H977        H  0.63973284  0.39308049  0.01778396     0.18900
F978        F  0.57034804  0.41545863  0.00783458    -0.18800
C979        C  0.92124065  0.35024332  0.02654989    -0.20200
C980        C  0.93217384  0.38627750  0.01405127    -0.08300
C981        C  0.90593369  0.41603866  0.01520694     0.30600
C982        C  0.86910867  0.40952824  0.02759603    -0.20200
C983        C  0.85751358  0.37302556  0.03807638    -0.08300
C984        C  0.88413910  0.34346129  0.03798645     0.30600
F985        F  0.87443129  0.30805659  0.04926289    -0.18800
H986        H  0.94088579  0.32684889  0.02524916     0.18900
H987        H  0.84933686  0.43285100  0.02804596     0.18900
F988        F  0.91553153  0.45098537  0.00263308    -0.18800
C989        C  0.68289566  0.18345195  0.13307934    -0.20200
C990        C  0.65213168  0.18987225  0.15725339    -0.08300
C991        C  0.63564502  0.22591129  0.15797348     0.30600
C992        C  0.65243801  0.25576014  0.13836447    -0.20200
C993        C  0.68544432  0.25004378  0.11733466    -0.08300
C994        C  0.69933169  0.21324513  0.11299290     0.30600
F995        F  0.73078898  0.20661142  0.09241920    -0.18800
H996        H  0.69560244  0.15569337  0.13128535     0.18900
H997        H  0.64093026  0.28392289  0.14149740     0.18900
F998        F  0.60514844  0.23304944  0.17976532    -0.18800
C999        C  0.81993969  0.32981718  0.26623555    -0.20200
C1000       C  0.84951314  0.30337069  0.26490092    -0.08300
C1001       C  0.86480777  0.29370003  0.22977383     0.30600
C1002       C  0.84822316  0.30746397  0.19658504    -0.20200
C1003       C  0.81667371  0.33150427  0.19796089    -0.08300
C1004       C  0.80371318  0.34395842  0.23311083     0.30600
F1005       F  0.77350040  0.36730382  0.23561767    -0.18800
H1006       H  0.80799502  0.33813060  0.29302968     0.18900
H1007       H  0.85904973  0.29795838  0.16971122     0.18900
F1008       F  0.89381834  0.26885647  0.22731508    -0.18800
C1009       C  0.85861222  0.67438679  0.24636422    -0.20200
C1010       C  0.84580163  0.66440490  0.28240104    -0.08300
C1011       C  0.81981940  0.63452858  0.28624898     0.30600
C1012       C  0.80468978  0.61718942  0.25430562    -0.20200
C1013       C  0.81480311  0.62971462  0.21817622    -0.08300
C1014       C  0.84310450  0.65741161  0.21440607     0.30600
F1015       F  0.85456637  0.66935624  0.17980507    -0.18800
H1016       H  0.87873596  0.69711436  0.24276560     0.18900
H1017       H  0.78322046  0.59573681  0.25785285     0.18900
F1018       F  0.80763985  0.62329538  0.32082920    -0.18800
C1019       C  0.68374754  0.73134008  0.12460018    -0.20200
C1020       C  0.67510784  0.69485613  0.13733610    -0.08300
C1021       C  0.64469562  0.68961131  0.16228069     0.30600
C1022       C  0.62582289  0.72073994  0.17709947    -0.20200
C1023       C  0.63724951  0.75740664  0.16754969    -0.08300
C1024       C  0.66508075  0.76250990  0.13966810     0.30600
F1025       F  0.67578515  0.79768522  0.12856443    -0.18800
H1026       H  0.70673768  0.73594243  0.10509815     0.18900
H1027       H  0.60420796  0.71615301  0.19812895     0.18900
F1028       F  0.63454492  0.65445679  0.17397055    -0.18800
C1029       C  0.63575399  0.53113264  0.05741409    -0.20200
C1030       C  0.64771347  0.53926040  0.09434839    -0.08300
C1031       C  0.62147894  0.53646113  0.12400310     0.30600
C1032       C  0.58428870  0.52549182  0.11673112    -0.20200
C1033       C  0.57291181  0.51576801  0.08009683    -0.08300
C1034       C  0.59891436  0.51884978  0.05043235     0.30600
F1035       F  0.58897779  0.50852531  0.01498645    -0.18800
H1036       H  0.65517046  0.53358793  0.03402565     0.18900
H1037       H  0.56486270  0.52249701  0.14005533     0.18900
F1038       F  0.63155397  0.54488662  0.15998194    -0.18800
C1039       C  0.90983210  0.54451101  0.04646110    -0.20200
C1040       C  0.93214470  0.57716888  0.04399859    -0.08300
C1041       C  0.91653485  0.61216171  0.05389823     0.30600
C1042       C  0.87868989  0.61464312  0.06422586    -0.20200
C1043       C  0.85592814  0.58220332  0.06562832    -0.08300
C1044       C  0.87205644  0.54686336  0.05749479     0.30600
F1045       F  0.85092862  0.51493969  0.05856601    -0.18800
H1046       H  0.92125011  0.51747447  0.03801910     0.18900
H1047       H  0.86713691  0.64206322  0.07125091     0.18900
F1048       F  0.93726583  0.64425904  0.05102122    -0.18800
C1049       C  0.91170459  0.61810199  0.96346965    -0.20200
C1050       C  0.92937688  0.58271466  0.96364566    -0.08300
C1051       C  0.90861536  0.55053266  0.95382677     0.30600
C1052       C  0.87052679  0.55379654  0.94409549    -0.20200
C1053       C  0.85244411  0.58917595  0.94490999    -0.08300
C1054       C  0.87350486  0.62136873  0.95477480     0.30600
F1055       F  0.85750037  0.65620987  0.95525583    -0.18800
H1056       H  0.92721114  0.64303460  0.97188782     0.18900
H1057       H  0.85513437  0.52865364  0.93609543     0.18900
F1058       F  0.92486514  0.51589670  0.95532362    -0.18800
C1059       C  0.59294116  0.52769742  0.86276416    -0.20200
C1060       C  0.57108798  0.53176847  0.89542086    -0.08300
C1061       C  0.58708535  0.54884187  0.92726228     0.30600
C1062       C  0.62508400  0.55949905  0.92710325    -0.20200
C1063       C  0.64765645  0.55343687  0.89506442    -0.08300
C1064       C  0.63092183  0.53776098  0.86263495     0.30600
F1065       F  0.65102794  0.53235377  0.83060082    -0.18800
H1066       H  0.58086812  0.51496505  0.83775906     0.18900
H1067       H  0.63685044  0.57249790  0.95211379     0.18900
F1068       F  0.56619315  0.55420404  0.95874154    -0.18800
C1069       C  0.65316558  0.70062441  0.82911103    -0.20200
C1070       C  0.68422949  0.70757912  0.85279708    -0.08300
C1071       C  0.69582903  0.74490324  0.85888655     0.30600
C1072       C  0.67874539  0.77434155  0.83874567    -0.20200
C1073       C  0.64974878  0.76699600  0.81256594    -0.08300
C1074       C  0.63585195  0.73006796  0.80924453     0.30600
F1075       F  0.60750560  0.72189360  0.78484567    -0.18800
H1076       H  0.64352430  0.67199997  0.82441389     0.18900
H1077       H  0.68951448  0.80272260  0.84229064     0.18900
F1078       F  0.72567366  0.75264476  0.88159084    -0.18800
C1079       C  0.82142631  0.62290030  0.75369605    -0.20200
C1080       C  0.82737409  0.63834841  0.78951319    -0.08300
C1081       C  0.85396291  0.66769628  0.79368242     0.30600
C1082       C  0.87092978  0.68394449  0.76187937    -0.20200
C1083       C  0.86160457  0.67112327  0.72569741    -0.08300
C1084       C  0.83835556  0.63910036  0.72201454     0.30600
F1085       F  0.83045233  0.62459036  0.68749454    -0.18800
H1086       H  0.80177617  0.59986265  0.74982982     0.18900
H1087       H  0.88922811  0.70813523  0.76538606     0.18900
F1088       F  0.86216308  0.68196758  0.82824525    -0.18800
C1089       C  0.68847058  0.24036770  0.85272792    -0.20200
C1090       C  0.67740060  0.27552884  0.83816945    -0.08300
C1091       C  0.64825484  0.27729811  0.81110198     0.30600
C1092       C  0.63335156  0.24407880  0.79612347    -0.20200
C1093       C  0.64749697  0.20888972  0.80776708    -0.08300
C1094       C  0.67381652  0.20722261  0.83759381     0.30600
F1095       F  0.68707391  0.17358993  0.85068102    -0.18800
H1096       H  0.71054370  0.23838215  0.87384076     0.18900
H1097       H  0.61273910  0.24598912  0.77357215     0.18900
F1098       F  0.63564999  0.31103655  0.79760120    -0.18800
C1099       C  0.84605695  0.31071988  0.77270733    -0.20200
C1100       C  0.81868317  0.33836767  0.76418718    -0.08300
C1101       C  0.81311243  0.34937338  0.72648327     0.30600
C1102       C  0.83206990  0.33044508  0.69773333    -0.20200
C1103       C  0.85729121  0.30081593  0.70615320    -0.08300
C1104       C  0.86553681  0.29229197  0.74397540     0.30600
F1105       F  0.89000610  0.26418088  0.75313746    -0.18800
H1106       H  0.85126521  0.30220058  0.80168882     0.18900
H1107       H  0.82571841  0.33780938  0.66866485     0.18900
F1108       F  0.78735767  0.37624345  0.71717512    -0.18800
C1109       C  0.61860480  0.42759366  0.85156127    -0.20200
C1110       C  0.64507081  0.43000336  0.88104384    -0.08300
C1111       C  0.63284347  0.44082352  0.91711582     0.30600
C1112       C  0.59529132  0.45131295  0.92276720    -0.20200
C1113       C  0.56922802  0.45038356  0.89283033    -0.08300
C1114       C  0.58087554  0.43710320  0.85748525     0.30600
F1115       F  0.55639918  0.43615286  0.82799147    -0.18800
H1116       H  0.62712901  0.41806237  0.82386894     0.18900
H1117       H  0.58692036  0.46220298  0.94997841     0.18900
F1118       F  0.65745013  0.44276935  0.94644245    -0.18800
C1119       C  0.87459835  0.42184339  0.90634940    -0.20200
C1120       C  0.85299024  0.38902025  0.91244618    -0.08300
C1121       C  0.87084708  0.35656545  0.92724602     0.30600
C1122       C  0.90899951  0.35740921  0.93650349    -0.20200
C1123       C  0.92984427  0.39084103  0.93271945    -0.08300
C1124       C  0.91277551  0.42275416  0.91639486     0.30600
F1125       F  0.93273327  0.45501827  0.91133067    -0.18800
H1126       H  0.86190771  0.44687087  0.89395948     0.18900
H1127       H  0.92196115  0.33237561  0.94860154     0.18900
F1128       F  0.85168086  0.32379822  0.93256420    -0.18800
loop_ 
_geom_bond_atom_site_label_1 
_geom_bond_atom_site_label_2 
_geom_bond_distance 
_geom_bond_site_symmetry_2 
_ccdc_geom_bond_type 
O1            C4   1.276       .  A
O1           Cd6   2.491       .  S
C2           O11   1.269       .  A
C2            O7   1.273       .  A
C2         C1110   1.477       .  S
O3            C9   1.274       .  A
O3           Cd6   2.453       .  S
C4           O12   1.264       .  A
C4         C1100   1.475       .  S
C5           O10   1.272       .  A
C5            O8   1.271       .  A
C5         C1120   1.481       .  S
Cd6          O13   2.386       .  S
Cd6          O12   2.377       .  S
Cd6          O11   2.433       .  S
Cd6           O7   2.445       .  S
Cd6          O10   2.424       .  S
Cd6           O8   2.439       .  S
C9           O13   1.265       .  A
C9         C1090   1.469       .  S
O14          C17   1.272       .  A
O14         Cd19   2.428       .  S
C15          O24   1.264       .  A
C15          O20   1.274       .  A
C15        C1070   1.469       .  S
O16          C22   1.274       .  A
O16         Cd19   2.478       .  S
C17          O25   1.269       .  A
C17        C1053   1.477       .  S
C18          O23   1.273       .  A
C18          O21   1.270       .  A
C18        C1063   1.483       .  S
Cd19         O26   2.401       .  S
Cd19         O25   2.425       .  S
Cd19         O24   2.367       .  S
Cd19         O20   2.481       .  S
Cd19         O23   2.438       .  S
Cd19         O21   2.440       .  S
C22          O26   1.264       .  A
C22        C1080   1.477       .  S
O27          C30   1.274       .  A
O27         Cd32   2.483       .  S
C28          O37   1.270       .  A
C28          O33   1.272       .  A
C28        C1043   1.478       .  S
O29          C35   1.275       .  A
O29         Cd32   2.483       .  S
C30          O38   1.264       .  A
C30        C1020   1.471       .  S
C31          O36   1.272       .  A
C31          O34   1.269       .  A
C31        C1030   1.483       .  S
Cd32         O39   2.386       .  S
Cd32         O38   2.373       .  S
Cd32         O37   2.452       .  S
Cd32         O33   2.441       .  S
Cd32         O36   2.457       .  S
Cd32         O34   2.452       .  S
C35          O39   1.264       .  A
C35        C1013   1.474       .  S
O40          C43   1.271       .  A
O40         Cd45   2.444       .  S
C41          O50   1.263       .  A
C41          O46   1.271       .  A
C41        C1003   1.474       .  S
O42          C48   1.273       .  A
O42         Cd45   2.503       .  S
C43          O51   1.270       .  A
C43         C973   1.488       .  S
C44          O49   1.271       .  A
C44          O47   1.268       .  A
C44         C983   1.481       .  S
Cd45         O52   2.378       .  S
Cd45         O51   2.474       .  S
Cd45         O50   2.407       .  S
Cd45         O46   2.480       .  S
Cd45         O49   2.460       .  S
Cd45         O47   2.455       .  S
C48          O52   1.262       .  A
C48         C993   1.472       .  S
O53          C56   1.275       .  A
O53         Cd58   2.471       .  S
C54          O63   1.269       .  A
C54          O59   1.272       .  A
C54         C940   1.477       .  S
O55          C61   1.275       .  A
O55         Cd58   2.479       .  S
C56          O64   1.264       .  A
C56         C960   1.471       .  S
C57          O62   1.272       .  A
C57          O60   1.270       .  A
C57         C950   1.480       .  S
Cd58         O65   2.385       .  S
Cd58         O64   2.374       .  S
Cd58         O63   2.431       .  S
Cd58         O59   2.443       .  S
Cd58         O62   2.431       .  S
Cd58         O60   2.448       .  S
C61          O65   1.264       .  A
C61        C1010   1.473       .  S
O66          C69   1.271       .  A
O66         Cd71   2.459       .  S
C67          O76   1.263       .  A
C67          O72   1.272       .  A
C67         C930   1.476       .  S
O68          C74   1.273       .  A
O68         Cd71   2.510       .  S
C69          O77   1.269       .  A
C69         C923   1.486       .  S
C70          O75   1.271       .  A
C70          O73   1.268       .  A
C70         C910   1.483       .  S
Cd71         O78   2.387       .  S
Cd71         O77   2.466       .  S
Cd71         O76   2.406       .  S
Cd71         O72   2.491       .  S
Cd71         O75   2.465       .  S
Cd71         O73   2.462       .  S
C74          O78   1.263       .  A
C74        C1083   1.475       .  S
O79          C82   1.272       .  A
O79         Cd84   2.432       .  S
C80          O89   1.264       .  A
C80          O85   1.273       .  A
C80         C883   1.470       .  S
O81          C87   1.272       .  A
O81         Cd84   2.451       .  S
C82          O90   1.269       .  A
C82         C900   1.476       .  S
C83          O88   1.275       .  A
C83          O86   1.263       .  A
C83         C870   1.475       .  S
Cd84         O91   2.454       .  S
Cd84         O90   2.431       .  S
Cd84         O89   2.376       .  S
Cd84         O85   2.474       .  S
Cd84         O88   2.490       .  S
Cd84         O86   2.377       .  S
C87          O91   1.270       .  A
C87         C893   1.480       .  S
O92          C95   1.273       .  A
O92         Cd97   2.453       .  S
C93         O102   1.265       .  A
C93          O98   1.277       .  A
C93         C863   1.474       .  S
O94         C100   1.275       .  A
O94         Cd97   2.467       .  S
C95         O103   1.270       .  A
C95         C840   1.479       .  S
C96         O101   1.274       .  A
C96          O99   1.271       .  A
C96         C833   1.483       .  S
Cd97        O104   2.372       .  S
Cd97        O103   2.441       .  S
Cd97        O102   2.372       .  S
Cd97         O98   2.477       .  S
Cd97        O101   2.433       .  S
Cd97         O99   2.443       .  S
C100        O104   1.265       .  A
C100        C853   1.472       .  S
O105        C108   1.272       .  A
O105       Cd110   2.475       .  S
C106        O115   1.269       .  A
C106        O111   1.270       .  A
C106        C813   1.477       .  S
O107        C113   1.274       .  A
O107       Cd110   2.504       .  S
C108        O116   1.264       .  A
C108       C1093   1.471       .  S
C109        O114   1.271       .  A
C109        O112   1.268       .  A
C109        C803   1.478       .  S
Cd110       O117   2.381       .  S
Cd110       O116   2.383       .  S
Cd110       O115   2.452       .  S
Cd110       O111   2.434       .  S
Cd110       O114   2.454       .  S
Cd110       O112   2.451       .  S
C113        O117   1.262       .  A
C113        C820   1.477       .  S
O118        C121   1.272       .  A
O118       Cd123   2.452       .  S
C119        O128   1.264       .  A
C119        O124   1.274       .  A
C119       C1073   1.473       .  S
O120        C126   1.274       .  A
O120       Cd123   2.490       .  S
C121        O129   1.269       .  A
C121        C780   1.478       .  S
C122        O127   1.273       .  A
C122        O125   1.269       .  A
C122        C790   1.484       .  S
Cd123       O130   2.391       .  S
Cd123       O129   2.426       .  S
Cd123       O128   2.378       .  S
Cd123       O124   2.472       .  S
Cd123       O127   2.445       .  S
Cd123       O125   2.443       .  S
C126        O130   1.264       .  A
C126        C933   1.477       .  S
O131        C134   1.274       .  A
O131       Cd136   2.474       .  S
C132        O141   1.270       .  A
C132        O137   1.272       .  A
C132        C763   1.481       .  S
O133        C139   1.275       .  A
O133       Cd136   2.487       .  S
C134        O142   1.264       .  A
C134        C770   1.473       .  S
C135        O140   1.272       .  A
C135        O138   1.269       .  A
C135        C753   1.476       .  S
Cd136       O143   2.375       .  S
Cd136       O142   2.392       .  S
Cd136       O141   2.455       .  S
Cd136       O137   2.433       .  S
Cd136       O140   2.443       .  S
Cd136       O138   2.434       .  S
C139        O143   1.264       .  A
C139        C873   1.472       .  S
O144        C147   1.272       .  A
O144       Cd149   2.440       .  S
C145        O154   1.264       .  A
C145        O150   1.273       .  A
C145        C713   1.474       .  S
O146        C152   1.273       .  A
O146       Cd149   2.487       .  S
C147        O155   1.269       .  A
C147        C743   1.481       .  S
C148        O153   1.272       .  A
C148        O151   1.269       .  A
C148        C730   1.481       .  S
Cd149       O156   2.392       .  S
Cd149       O155   2.433       .  S
Cd149       O154   2.387       .  S
Cd149       O150   2.477       .  S
Cd149       O153   2.437       .  S
Cd149       O151   2.439       .  S
C152        O156   1.264       .  A
C152        C723   1.474       .  S
O157        C160   1.274       .  A
O157       Cd162   2.483       .  S
C158        O167   1.270       .  A
C158        O163   1.272       .  A
C158        C700   1.485       .  S
O159        C165   1.275       .  A
O159       Cd162   2.476       .  S
C160        O168   1.263       .  A
C160        C963   1.472       .  S
C161        O166   1.272       .  A
C161        O164   1.269       .  A
C161        C690   1.481       .  S
Cd162       O169   2.374       .  S
Cd162       O168   2.377       .  S
Cd162       O167   2.460       .  S
Cd162       O163   2.428       .  S
Cd162       O166   2.448       .  S
Cd162       O164   2.443       .  S
C165        O169   1.264       .  A
C165       C1023   1.472       .  S
O170        C173   1.273       .  A
O170       Cd175   2.434       .  S
C171        O180   1.266       .  A
C171        O176   1.276       .  A
C171        C680   1.472       .  S
O172        C178   1.276       .  A
O172       Cd175   2.478       .  S
C173        O181   1.269       .  A
C173        C670   1.474       .  S
C174        O179   1.274       .  A
C174        O177   1.271       .  A
C174        C660   1.483       .  S
Cd175       O182   2.381       .  S
Cd175       O181   2.436       .  S
Cd175       O180   2.374       .  S
Cd175       O176   2.474       .  S
Cd175       O179   2.432       .  S
Cd175       O177   2.440       .  S
C178        O182   1.265       .  A
C178        C990   1.477       .  S
O183        C186   1.272       .  A
O183       Cd188   2.432       .  S
C184        O193   1.262       .  A
C184        O189   1.273       .  A
C184        C650   1.472       .  S
O185        C191   1.273       .  A
O185       Cd188   2.480       .  S
C186        O194   1.270       .  A
C186        C640   1.483       .  S
C187        O192   1.270       .  A
C187        O190   1.269       .  A
C187        C630   1.475       .  S
Cd188       O195   2.389       .  S
Cd188       O194   2.460       .  S
Cd188       O193   2.382       .  S
Cd188       O189   2.493       .  S
Cd188       O192   2.434       .  S
Cd188       O190   2.456       .  S
C191        O195   1.263       .  A
C191        C850   1.471       .  S
O196        C199   1.275       .  A
O196       Cd201   2.457       .  S
C197        O206   1.269       .  A
C197        O202   1.271       .  A
C197        C623   1.475       .  S
O198        C204   1.274       .  A
O198       Cd201   2.477       .  S
C199        O207   1.264       .  A
C199        C593   1.469       .  S
C200        O205   1.273       .  A
C200        O203   1.270       .  A
C200        C610   1.479       .  S
Cd201       O208   2.374       .  S
Cd201       O207   2.375       .  S
Cd201       O206   2.424       .  S
Cd201       O202   2.441       .  S
Cd201       O205   2.421       .  S
Cd201       O203   2.432       .  S
C204        O208   1.264       .  A
C204        C600   1.470       .  S
O209        C212   1.272       .  A
O209       Cd214   2.446       .  S
C210        O219   1.264       .  A
C210        O215   1.274       .  A
C210        C880   1.475       .  S
O211        C217   1.271       .  A
O211       Cd214   2.435       .  S
C212        O220   1.269       .  A
C212        C570   1.482       .  S
C213        O218   1.274       .  A
C213        O216   1.264       .  A
C213        C773   1.474       .  S
Cd214       O221   2.452       .  S
Cd214       O220   2.446       .  S
Cd214       O219   2.393       .  S
Cd214       O215   2.471       .  S
Cd214       O218   2.482       .  S
Cd214       O216   2.386       .  S
C217        O221   1.269       .  A
C217        C583   1.484       .  S
O222        C225   1.270       .  A
O222       Cd227   2.435       .  S
C223        O232   1.263       .  A
C223        O228   1.274       .  A
C223        C710   1.473       .  S
O224        C230   1.274       .  A
O224       Cd227   2.486       .  S
C225        O233   1.269       .  A
C225        C543   1.474       .  S
C226        O231   1.271       .  A
C226        O229   1.270       .  A
C226        C550   1.478       .  S
Cd227       O234   2.378       .  S
Cd227       O233   2.456       .  S
Cd227       O232   2.378       .  S
Cd227       O228   2.491       .  S
Cd227       O231   2.442       .  S
Cd227       O229   2.445       .  S
C230        O234   1.263       .  A
C230        C563   1.473       .  S
O235        C238   1.272       .  A
O235       Cd240   2.451       .  S
C236        O245   1.264       .  A
C236        O241   1.275       .  A
C236        C860   1.472       .  S
O237        C243   1.275       .  A
O237       Cd240   2.474       .  S
C238        O246   1.270       .  A
C238        C520   1.479       .  S
C239        O244   1.272       .  A
C239        O242   1.270       .  A
C239        C533   1.477       .  S
Cd240       O247   2.373       .  S
Cd240       O246   2.435       .  S
Cd240       O245   2.377       .  S
Cd240       O241   2.482       .  S
Cd240       O244   2.442       .  S
Cd240       O242   2.447       .  S
C243        O247   1.264       .  A
C243        C653   1.471       .  S
O248        C251   1.273       .  A
O248       Cd253   2.438       .  S
C249        O258   1.265       .  A
C249        O254   1.274       .  A
C249        C490   1.475       .  S
O250        C256   1.273       .  A
O250       Cd253   2.449       .  S
C251        O259   1.269       .  A
C251        C500   1.484       .  S
C252        O257   1.275       .  A
C252        O255   1.264       .  A
C252        C590   1.469       .  S
Cd253       O260   2.417       .  S
Cd253       O259   2.458       .  S
Cd253       O258   2.392       .  S
Cd253       O254   2.481       .  S
Cd253       O257   2.469       .  S
Cd253       O255   2.362       .  S
C256        O260   1.269       .  A
C256        C510   1.482       .  S
O261        C264   1.276       .  A
O261       Cd266   2.491       .  S
C262        O271   1.270       .  A
C262        O267   1.272       .  A
C262        C470   1.478       .  S
O263        C269   1.274       .  A
O263       Cd266   2.480       .  S
C264        O272   1.264       .  A
C264       C1103   1.473       .  S
C265        O270   1.273       .  A
C265        O268   1.270       .  A
C265        C480   1.485       .  S
Cd266       O273   2.400       .  S
Cd266       O272   2.374       .  S
Cd266       O271   2.448       .  S
Cd266       O267   2.445       .  S
Cd266       O270   2.438       .  S
Cd266       O268   2.454       .  S
C269        O273   1.264       .  A
C269        C823   1.476       .  S
O274        C277   1.272       .  A
O274       Cd279   2.432       .  S
C275        O284   1.264       .  A
C275        O280   1.274       .  A
C275        C560   1.472       .  S
O276        C282   1.276       .  A
O276       Cd279   2.490       .  S
C277        O285   1.270       .  A
C277        C460   1.484       .  S
C278        O283   1.272       .  A
C278        O281   1.269       .  A
C278        C450   1.481       .  S
Cd279       O286   2.376       .  S
Cd279       O285   2.454       .  S
Cd279       O284   2.384       .  S
Cd279       O280   2.473       .  S
Cd279       O283   2.451       .  S
Cd279       O281   2.449       .  S
C282        O286   1.264       .  A
C282        C720   1.475       .  S
O287        C290   1.272       .  A
O287       Cd292   2.448       .  S
C288        O297   1.264       .  A
C288        O293   1.275       .  A
C288        C683   1.476       .  S
O289        C295   1.274       .  A
O289       Cd292   2.482       .  S
C290        O298   1.269       .  A
C290        C443   1.480       .  S
C291        O296   1.273       .  A
C291        O294   1.270       .  A
C291        C433   1.478       .  S
Cd292       O299   2.382       .  S
Cd292       O298   2.448       .  S
Cd292       O297   2.383       .  S
Cd292       O293   2.483       .  S
Cd292       O296   2.425       .  S
Cd292       O294   2.442       .  S
C295        O299   1.264       .  A
C295       C1000   1.475       .  S
O300        C303   1.271       .  A
O300       Cd305   2.460       .  S
C301        O310   1.264       .  A
C301        O306   1.275       .  A
C301        C493   1.476       .  S
O302        C308   1.273       .  A
O302       Cd305   2.452       .  S
C303        O311   1.270       .  A
C303        C413   1.485       .  S
C304        O309   1.274       .  A
C304        O307   1.263       .  A
C304        C603   1.475       .  S
Cd305       O312   2.443       .  S
Cd305       O311   2.460       .  S
Cd305       O310   2.397       .  S
Cd305       O306   2.475       .  S
Cd305       O309   2.489       .  S
Cd305       O307   2.385       .  S
C308        O312   1.269       .  A
C308        C420   1.483       .  S
C313       C1060   1.486       .  S
C313        C314   1.417       .  A
C313        C318   1.405       .  A
C314       C1113   1.484       .  S
C314        C315   1.404       .  A
C315        C316   1.404       .  A
C315        H320   1.084       .  S
C316        C553   1.486       .  S
C316        C317   1.416       .  A
C317        C573   1.482       .  S
C317        C318   1.404       .  A
C318        H319   1.084       .  S
C321       C1033   1.487       .  S
C321        C322   1.417       .  A
C321        C326   1.405       .  A
C322        C970   1.489       .  S
C322        C323   1.408       .  A
C323        C324   1.408       .  A
C323        H328   1.084       .  S
C324        C503   1.488       .  S
C324        C325   1.417       .  A
C325        C523   1.487       .  S
C325        C326   1.405       .  A
C326        H327   1.084       .  S
C329        C783   1.480       .  S
C329        C330   1.414       .  A
C329        C334   1.402       .  A
C330        C760   1.482       .  S
C330        C331   1.405       .  A
C331        C332   1.405       .  A
C331        H336   1.084       .  S
C332        C643   1.482       .  S
C332        C333   1.415       .  A
C333        C693   1.481       .  S
C333        C334   1.403       .  A
C334        H335   1.084       .  S
C337        C810   1.479       .  S
C337        C338   1.413       .  A
C337        C342   1.404       .  A
C338        C740   1.479       .  S
C338        C339   1.401       .  A
C339        C340   1.402       .  A
C339        H344   1.084       .  S
C340        C620   1.479       .  S
C340        C341   1.416       .  A
C341        C663   1.484       .  S
C341        C342   1.404       .  A
C342        H343   1.084       .  S
C345        C920   1.485       .  S
C345        C346   1.413       .  A
C345        C350   1.405       .  A
C346        C943   1.480       .  S
C346        C347   1.404       .  A
C347        C348   1.404       .  A
C347        H352   1.084       .  S
C348        C440   1.484       .  S
C348        C349   1.417       .  A
C349        C483   1.486       .  S
C349        C350   1.407       .  A
C350        H351   1.084       .  S
C353        C890   1.484       .  S
C353        C354   1.416       .  A
C353        C358   1.404       .  A
C354        C830   1.484       .  S
C354        C355   1.407       .  A
C355        C356   1.406       .  A
C355        H360   1.084       .  S
C356        C423   1.483       .  S
C356        C357   1.414       .  A
C357        C453   1.483       .  S
C357        C358   1.403       .  A
C358        H359   1.084       .  S
C361        C843   1.484       .  S
C361        C362   1.415   1_455  A
C361        C366   1.404       .  A
C362        C953   1.482       .  S
C362        C363   1.404       .  A
C363        C364   1.405   1_565  A
C363        H368   1.084       .  S
C364        C430   1.478       .  S
C364        C365   1.414   1_655  A
C365        C410   1.485       .  S
C365        C366   1.403   1_545  A
C366        H367   1.084       .  S
C369        C913   1.487       .  S
C369        C370   1.414   1_655  A
C369        C374   1.404       .  A
C370        C903   1.477       .  S
C370        C371   1.404       .  A
C371        C372   1.404   1_565  A
C371        H376   1.084       .  S
C372        C463   1.486       .  S
C372        C373   1.417   1_455  A
C373        C473   1.484       .  S
C373        C374   1.406   1_545  A
C374        H375   1.084       .  S
C377        C733   1.480       .  S
C377        C378   1.414   1_545  A
C377        C382   1.403       .  A
C378        C750   1.481       .  S
C378        C379   1.402       .  A
C379        C380   1.403   1_556  A
C379        H384   1.084       .  S
C380        C633   1.485       .  S
C380        C381   1.417   1_565  A
C381        C613   1.481       .  S
C381        C382   1.405   1_554  A
C382        H383   1.084       .  S
C385        C800   1.485       .  S
C385        C386   1.418   1_545  A
C385        C390   1.403       .  A
C386        C793   1.488       .  S
C386        C387   1.407       .  A
C387        C388   1.406   1_556  A
C387        H392   1.084       .  S
C388        C703   1.485       .  S
C388        C389   1.416       .  A
C389        C673   1.484   1_565  S
C389        C390   1.403   1_564  A
C390        H391   1.084       .  S
C393        C980   1.487   1_556  S
C393        C394   1.417       .  A
C393        C398   1.403   1_656  A
C394       C1123   1.482       .  S
C394        C395   1.405   1_655  A
C395        C396   1.405       .  A
C395        H400   1.084   1_455  S
C396        C540   1.486       .  S
C396        C397   1.415       .  A
C397        C513   1.480   1_556  S
C397        C398   1.404   1_556  A
C398        H399   1.084       .  S
C401       C1050   1.478       .  S
C401        C402   1.413   1_556  A
C401        C406   1.404       .  A
C402       C1040   1.483       .  S
C402        C403   1.403   1_655  A
C403        C404   1.404       .  A
C403        H408   1.084       .  S
C404        C530   1.481       .  S
C404        C405   1.416   1_554  A
C405        C580   1.484       .  S
C405        C406   1.403   1_455  A
C406        H407   1.084       .  S
C409        C410   1.402       .  A
C409        C414   1.400       .  A
C409        H416   1.083       .  S
C410        C411   1.404       .  A
C411        C412   1.401       .  A
C411        F418   1.355       .  S
C412        C413   1.407       .  A
C412        H417   1.083       .  S
C413        C414   1.410       .  A
C414        F415   1.357       .  S
C419        C420   1.405       .  A
C419        C424   1.397       .  A
C419        H426   1.083       .  S
C420        C421   1.410       .  A
C421        C422   1.403       .  A
C421        F428   1.356       .  S
C422        C423   1.403       .  A
C422        H427   1.083       .  S
C423        C424   1.404       .  A
C424        F425   1.358       .  S
C429        C430   1.403       .  A
C429        C434   1.402       .  A
C429        H436   1.083       .  S
C430        C431   1.403       .  A
C431        C432   1.394       .  A
C431        F438   1.358       .  S
C432        C433   1.404       .  A
C432        H437   1.083       .  S
C433        C434   1.409       .  A
C434        F435   1.356       .  S
C439        C440   1.404       .  A
C439        C444   1.401       .  A
C439        H446   1.083       .  S
C440        C441   1.404       .  A
C441        C442   1.398       .  A
C441        F448   1.357       .  S
C442        C443   1.405       .  A
C442        H447   1.083       .  S
C443        C444   1.408       .  A
C444        F445   1.356       .  S
C449        C450   1.406       .  A
C449        C454   1.402       .  A
C449        H456   1.083       .  S
C450        C451   1.409       .  A
C451        C452   1.398       .  A
C451        F458   1.357       .  S
C452        C453   1.401       .  A
C452        H457   1.083       .  S
C453        C454   1.406       .  A
C454        F455   1.357       .  S
C459        C460   1.410       .  A
C459        C464   1.404       .  A
C459        H466   1.083       .  S
C460        C461   1.408       .  A
C461        C462   1.394       .  A
C461        F468   1.357       .  S
C462        C463   1.402       .  A
C462        H467   1.083       .  S
C463        C464   1.403       .  A
C464        F465   1.357       .  S
C469        C470   1.405       .  A
C469        C474   1.398       .  A
C469        H476   1.083       .  S
C470        C471   1.406       .  A
C471        C472   1.401       .  A
C471        F478   1.356       .  S
C472        C473   1.405       .  A
C472        H477   1.082       .  S
C473        C474   1.404       .  A
C474        F475   1.357       .  S
C479        C480   1.410       .  A
C479        C484   1.405       .  A
C479        H486   1.083       .  S
C480        C481   1.408       .  A
C481        C482   1.395       .  A
C481        F488   1.357       .  S
C482        C483   1.402       .  A
C482        H487   1.083       .  S
C483        C484   1.403       .  A
C484        F485   1.357       .  S
C489        C490   1.401       .  A
C489        C494   1.398       .  A
C489        H496   1.083       .  S
C490        C491   1.410       .  A
C491        C492   1.396       .  A
C491        F498   1.358       .  S
C492        C493   1.400       .  A
C492        H497   1.083       .  S
C493        C494   1.411       .  A
C494        F495   1.358       .  S
C499        C500   1.404       .  A
C499        C504   1.394       .  A
C499        H506   1.083       .  S
C500        C501   1.412       .  A
C501        C502   1.406       .  A
C501        F508   1.357       .  S
C502        C503   1.404       .  A
C502        H507   1.084       .  S
C503        C504   1.405       .  A
C504        F505   1.357       .  S
C509        C510   1.405       .  A
C509        C514   1.396       .  A
C509        H516   1.083       .  S
C510        C511   1.412       .  A
C511        C512   1.399       .  A
C511        F518   1.356       .  S
C512        C513   1.400       .  A
C512        H517   1.083       .  S
C513        C514   1.404       .  A
C514        F515   1.358   1_554  S
C519        C520   1.404       .  A
C519        C524   1.399       .  A
C519        H526   1.084       .  S
C520        C521   1.409       .  A
C521        C522   1.400       .  A
C521        F528   1.358       .  S
C522        C523   1.402       .  A
C522        H527   1.084       .  S
C523        C524   1.407       .  A
C524        F525   1.356       .  S
C529        C530   1.405       .  A
C529        C534   1.401       .  A
C529        H536   1.084       .  S
C530        C531   1.404       .  A
C531        C532   1.398       .  A
C531        F538   1.358       .  S
C532        C533   1.405       .  A
C532        H537   1.084       .  S
C533        C534   1.405       .  A
C534        F535   1.356       .  S
C539        C540   1.401       .  A
C539        C544   1.399       .  A
C539        H546   1.083       .  S
C540        C541   1.408       .  A
C541        C542   1.400       .  A
C541        F548   1.354       .  S
C542        C543   1.401       .  A
C542        H547   1.083       .  S
C543        C544   1.408       .  A
C544        F545   1.358       .  S
C549        C550   1.406       .  A
C549        C554   1.398       .  A
C549        H556   1.084       .  S
C550        C551   1.406       .  A
C551        C552   1.400       .  A
C551        F558   1.357       .  S
C552        C553   1.406       .  A
C552        H557   1.083       .  S
C553        C554   1.403       .  A
C554        F555   1.358       .  S
C559        C560   1.408       .  A
C559        C564   1.397       .  A
C559        H566   1.083       .  S
C560        C561   1.402       .  A
C561        C562   1.395       .  A
C561        F568   1.358       .  S
C562        C563   1.408       .  A
C562        H567   1.083       .  S
C563        C564   1.402       .  A
C564        F565   1.357       .  S
C569        C570   1.405       .  A
C569        C574   1.395       .  A
C569        H576   1.083       .  S
C570        C571   1.411       .  A
C571        C572   1.403       .  A
C571        F578   1.357       .  S
C572        C573   1.402       .  A
C572        H577   1.082       .  S
C573        C574   1.404       .  A
C574        F575   1.357       .  S
C579        C580   1.401       .  A
C579        C584   1.395       .  A
C579        H586   1.083       .  S
C580        C581   1.401       .  A
C581        C582   1.403       .  A
C581        F588   1.355       .  S
C582        C583   1.410       .  A
C582        H587   1.083       .  S
C583        C584   1.409       .  A
C584        F585   1.357       .  S
C589        C590   1.400       .  A
C589        C594   1.395       .  A
C589        H596   1.083       .  S
C590        C591   1.410       .  A
C591        C592   1.392       .  A
C591        F598   1.358       .  S
C592        C593   1.398       .  A
C592        H597   1.083       .  S
C593        C594   1.411       .  A
C594        F595   1.358       .  S
C599        C600   1.399       .  A
C599        C604   1.396       .  A
C599        H606   1.083       .  S
C600        C601   1.409       .  A
C601        C602   1.396       .  A
C601        F608   1.358       .  S
C602        C603   1.401       .  A
C602        H607   1.082       .  S
C603        C604   1.412       .  A
C604        F605   1.358       .  S
C609        C610   1.409       .  A
C609        C614   1.402       .  A
C609        H616   1.083       .  S
C610        C611   1.408       .  A
C611        C612   1.393       .  A
C611        F618   1.358       .  S
C612        C613   1.403       .  A
C612        H617   1.083       .  S
C613        C614   1.402       .  A
C614        F615   1.357       .  S
C619        C620   1.401       .  A
C619        C624   1.398       .  A
C619        H626   1.083       .  S
C620        C621   1.404       .  A
C621        C622   1.397       .  A
C621        F628   1.356       .  S
C622        C623   1.404       .  A
C622        H627   1.083       .  S
C623        C624   1.409       .  A
C624        F625   1.358       .  S
C629        C630   1.405       .  A
C629        C634   1.397       .  A
C629        H636   1.083       .  S
C630        C631   1.405       .  A
C631        C632   1.400       .  A
C631        F638   1.357       .  S
C632        C633   1.407       .  A
C632        H637   1.082       .  S
C633        C634   1.403       .  A
C634        F635   1.358       .  S
C639        C640   1.409       .  A
C639        C644   1.404       .  A
C639        H646   1.083       .  S
C640        C641   1.408       .  A
C641        C642   1.395       .  A
C641        F648   1.357       .  S
C642        C643   1.401       .  A
C642        H647   1.084       .  S
C643        C644   1.404       .  A
C644        F645   1.356       .  S
C649        C650   1.400       .  A
C649        C654   1.396       .  A
C649        H656   1.083       .  S
C650        C651   1.410       .  A
C651        C652   1.395       .  A
C651        F658   1.358       .  S
C652        C653   1.399       .  A
C652        H657   1.083       .  S
C653        C654   1.410       .  A
C654        F655   1.358       .  S
C659        C660   1.410       .  A
C659        C664   1.404       .  A
C659        H666   1.083       .  S
C660        C661   1.408       .  A
C661        C662   1.394       .  A
C661        F668   1.357       .  S
C662        C663   1.402       .  A
C662        H667   1.083       .  S
C663        C664   1.404       .  A
C664        F665   1.357       .  S
C669        C670   1.405       .  A
C669        C674   1.397       .  A
C669        H676   1.083       .  S
C670        C671   1.406       .  A
C671        C672   1.401       .  A
C671        F678   1.357       .  S
C672        C673   1.406       .  A
C672        H677   1.082       .  S
C673        C674   1.404       .  A
C674        F675   1.358       .  S
C679        C680   1.407       .  A
C679        C684   1.396       .  A
C679        H686   1.084       .  S
C680        C681   1.402       .  A
C681        C682   1.397       .  A
C681        F688   1.358       .  S
C682        C683   1.409       .  A
C682        H687   1.084       .  S
C683        C684   1.403       .  A
C684        F685   1.357       .  S
C689        C690   1.406       .  A
C689        C694   1.400       .  A
C689        H696   1.083       .  S
C690        C691   1.410       .  A
C691        C692   1.399       .  A
C691        F698   1.357       .  S
C692        C693   1.401       .  A
C692        H697   1.083       .  S
C693        C694   1.404       .  A
C694        F695   1.356       .  S
C699        C700   1.410       .  A
C699        C704   1.405       .  A
C699        H706   1.083       .  S
C700        C701   1.408       .  A
C701        C702   1.394       .  A
C701        F708   1.357       .  S
C702        C703   1.401       .  A
C702        H707   1.084       .  S
C703        C704   1.404       .  A
C704        F705   1.356       .  S
C709        C710   1.407       .  A
C709        C714   1.396       .  A
C709        H716   1.083       .  S
C710        C711   1.402       .  A
C711        C712   1.397       .  A
C711        F718   1.357       .  S
C712        C713   1.408       .  A
C712        H717   1.083       .  S
C713        C714   1.403       .  A
C714        F715   1.357       .  S
C719        C720   1.408       .  A
C719        C724   1.396       .  A
C719        H726   1.083       .  S
C720        C721   1.403       .  A
C721        C722   1.398       .  A
C721        F728   1.357       .  S
C722        C723   1.408       .  A
C722        H727   1.083       .  S
C723        C724   1.402       .  A
C724        F725   1.357       .  S
C729        C730   1.409       .  A
C729        C734   1.401       .  A
C729        H736   1.083       .  S
C730        C731   1.409       .  A
C731        C732   1.395       .  A
C731        F738   1.357       .  S
C732        C733   1.402       .  A
C732        H737   1.083       .  S
C733        C734   1.402       .  A
C734        F735   1.356       .  S
C739        C740   1.402       .  A
C739        C744   1.397       .  A
C739        H746   1.084       .  S
C740        C741   1.401       .  A
C741        C742   1.399       .  A
C741        F748   1.356       .  S
C742        C743   1.408       .  A
C742        H747   1.084       .  S
C743        C744   1.410       .  A
C744        F745   1.357       .  S
C749        C750   1.401       .  A
C749        C754   1.398       .  A
C749        H756   1.083       .  S
C750        C751   1.405       .  A
C751        C752   1.399       .  A
C751        F758   1.355       .  S
C752        C753   1.404       .  A
C752        H757   1.083       .  S
C753        C754   1.408       .  A
C754        F755   1.357       .  S
C759        C760   1.404       .  A
C759        C764   1.404       .  A
C759        H766   1.083       .  S
C760        C761   1.403       .  A
C761        C762   1.395       .  A
C761        F768   1.357       .  S
C762        C763   1.405       .  A
C762        H767   1.084       .  S
C763        C764   1.410       .  A
C764        F765   1.357       .  S
C769        C770   1.408       .  A
C769        C774   1.398       .  A
C769        H776   1.083       .  S
C770        C771   1.402       .  A
C771        C772   1.396       .  A
C771        F778   1.357       .  S
C772        C773   1.407       .  A
C772        H777   1.083       .  S
C773        C774   1.403       .  A
C774        F775   1.357       .  S
C779        C780   1.407       .  A
C779        C784   1.399       .  A
C779        H786   1.084       .  S
C780        C781   1.407       .  A
C781        C782   1.397       .  A
C781        F788   1.357       .  S
C782        C783   1.402       .  A
C782        H787   1.084       .  S
C783        C784   1.404       .  A
C784        F785   1.358       .  S
C789        C790   1.410       .  A
C789        C794   1.403       .  A
C789        H796   1.083       .  S
C790        C791   1.408       .  A
C791        C792   1.395       .  A
C791        F798   1.357       .  S
C792        C793   1.404       .  A
C792        H797   1.083       .  S
C793        C794   1.403       .  A
C794        F795   1.356       .  S
C799        C800   1.404       .  A
C799        C804   1.400       .  A
C799        H806   1.081       .  S
C800        C801   1.404       .  A
C801        C802   1.399       .  A
C801        F808   1.358       .  S
C802        C803   1.406       .  A
C802        H807   1.083       .  S
C803        C804   1.406       .  A
C804        F805   1.357       .  S
C809        C810   1.400       .  A
C809        C814   1.397       .  A
C809        H816   1.084       .  S
C810        C811   1.405       .  A
C811        C812   1.400       .  A
C811        F818   1.357       .  S
C812        C813   1.405       .  A
C812        H817   1.084       .  S
C813        C814   1.409       .  A
C814        F815   1.358       .  S
C819        C820   1.401       .  A
C819        C824   1.400       .  A
C819        H826   1.082       .  S
C820        C821   1.411       .  A
C821        C822   1.396       .  A
C821        F828   1.358       .  S
C822        C823   1.400       .  A
C822        H827   1.083       .  S
C823        C824   1.411       .  A
C824        F825   1.358       .  S
C829        C830   1.403       .  A
C829        C834   1.404       .  A
C829        H836   1.080       .  S
C830        C831   1.405       .  A
C831        C832   1.395       .  A
C831        F838   1.357       .  S
C832        C833   1.405       .  A
C832        H837   1.082       .  S
C833        C834   1.411       .  A
C834        F835   1.357       .  S
C839        C840   1.405       .  A
C839        C844   1.399       .  A
C839        H846   1.083       .  S
C840        C841   1.406       .  A
C841        C842   1.400       .  A
C841        F848   1.356       .  S
C842        C843   1.405       .  A
C842        H847   1.083       .  S
C843        C844   1.404       .  A
C844        F845   1.358       .  S
C849        C850   1.400       .  A
C849        C854   1.396       .  A
C849        H856   1.082       .  S
C850        C851   1.409       .  A
C851        C852   1.395       .  A
C851        F858   1.358       .  S
C852        C853   1.400       .  A
C852        H857   1.082       .  S
C853        C854   1.411       .  A
C854        F855   1.358       .  S
C859        C860   1.408       .  A
C859        C864   1.396       .  A
C859        H866   1.083       .  S
C860        C861   1.402       .  A
C861        C862   1.397       .  A
C861        F868   1.357       .  S
C862        C863   1.409       .  A
C862        H867   1.083       .  S
C863        C864   1.402       .  A
C864        F865   1.357       .  S
C869        C870   1.409       .  A
C869        C874   1.396       .  A
C869        H876   1.083       .  S
C870        C871   1.402       .  A
C871        C872   1.397       .  A
C871        F878   1.357       .  S
C872        C873   1.408       .  A
C872        H877   1.084       .  S
C873        C874   1.401       .  A
C874        F875   1.357       .  S
C879        C880   1.409       .  A
C879        C884   1.397       .  A
C879        H886   1.083       .  S
C880        C881   1.403       .  A
C881        C882   1.394       .  A
C881        F888   1.357       .  S
C882        C883   1.406       .  A
C882        H887   1.084       .  S
C883        C884   1.403       .  A
C884        F885   1.358       .  S
C889        C890   1.404       .  A
C889        C894   1.400       .  A
C889        H896   1.086       .  S
C890        C891   1.404       .  A
C891        C892   1.399       .  A
C891        F898   1.358       .  S
C892        C893   1.406       .  A
C892        H897   1.082       .  S
C893        C894   1.407       .  A
C894        F895   1.357       .  S
C899        C900   1.405       .  A
C899        C904   1.395       .  A
C899        H906   1.083       .  S
C900        C901   1.407       .  A
C901        C902   1.400       .  A
C901        F908   1.356       .  S
C902        C903   1.402       .  A
C902        H907   1.082       .  S
C903        C904   1.403       .  A
C904        F905   1.358       .  S
C909        C910   1.406       .  A
C909        C914   1.399       .  A
C909        H916   1.083       .  S
C910        C911   1.408       .  A
C911        C912   1.403       .  A
C911        F918   1.357       .  S
C912        C913   1.406       .  A
C912        H917   1.083       .  S
C913        C914   1.404       .  A
C914        F915   1.357       .  S
C919        C920   1.404       .  A
C919        C924   1.404       .  A
C919        H926   1.079       .  S
C920        C921   1.404       .  A
C921        C922   1.399       .  A
C921        F928   1.358       .  S
C922        C923   1.406       .  A
C922        H927   1.079       .  S
C923        C924   1.410       .  A
C924        F925   1.356       .  S
C929        C930   1.408       .  A
C929        C934   1.398       .  A
C929        H936   1.083       .  S
C930        C931   1.403       .  A
C931        C932   1.397       .  A
C931        F938   1.357       .  S
C932        C933   1.408       .  A
C932        H937   1.083       .  S
C933        C934   1.404       .  A
C934        F935   1.357       .  S
C939        C940   1.405       .  A
C939        C944   1.400       .  A
C939        H946   1.084       .  S
C940        C941   1.408       .  A
C941        C942   1.397       .  A
C941        F948   1.358       .  S
C942        C943   1.401       .  A
C942        H947   1.084       .  S
C943        C944   1.405       .  A
C944        F945   1.357       .  S
C949        C950   1.404       .  A
C949        C954   1.394       .  A
C949        H956   1.083       .  S
C950        C951   1.411       .  A
C951        C952   1.404       .  A
C951        F958   1.357       .  S
C952        C953   1.403       .  A
C952        H957   1.082       .  S
C953        C954   1.403       .  A
C954        F955   1.357       .  S
C959        C960   1.399       .  A
C959        C964   1.395       .  A
C959        H966   1.083       .  S
C960        C961   1.411       .  A
C961        C962   1.396       .  A
C961        F968   1.358       .  S
C962        C963   1.400       .  A
C962        H967   1.083       .  S
C963        C964   1.410       .  A
C964        F965   1.358       .  S
C969        C970   1.402       .  A
C969        C974   1.395       .  A
C969        H976   1.083       .  S
C970        C971   1.404       .  A
C971        C972   1.406       .  A
C971        F978   1.357       .  S
C972        C973   1.411       .  A
C972        H977   1.083       .  S
C973        C974   1.409       .  A
C974        F975   1.357       .  S
C979        C980   1.403       .  A
C979        C984   1.401       .  A
C979        H986   1.084       .  S
C980        C981   1.407       .  A
C981        C982   1.400       .  A
C981        F988   1.356       .  S
C982        C983   1.404       .  A
C982        H987   1.083       .  S
C983        C984   1.410       .  A
C984        F985   1.358       .  S
C989        C990   1.410       .  A
C989        C994   1.397       .  A
C989        H996   1.083       .  S
C990        C991   1.403       .  A
C991        C992   1.396       .  A
C991        F998   1.357       .  S
C992        C993   1.407       .  A
C992        H997   1.083       .  S
C993        C994   1.401       .  A
C994        F995   1.358       .  S
C999       C1000   1.407       .  A
C999       C1004   1.395       .  A
C999       H1006   1.083       .  S
C1000      C1001   1.404       .  A
C1001      C1002   1.398       .  A
C1001      F1008   1.357       .  S
C1002      C1003   1.408       .  A
C1002      H1007   1.083       .  S
C1003      C1004   1.403       .  A
C1004      F1005   1.357       .  S
C1009      C1010   1.400       .  A
C1009      C1014   1.397       .  A
C1009      H1016   1.084       .  S
C1010      C1011   1.410       .  A
C1011      C1012   1.397       .  A
C1011      F1018   1.358       .  S
C1012      C1013   1.400       .  A
C1012      H1017   1.084       .  S
C1013      C1014   1.411       .  A
C1014      F1015   1.358       .  S
C1019      C1020   1.399       .  A
C1019      C1024   1.396       .  A
C1019      H1026   1.083       .  S
C1020      C1021   1.410       .  A
C1021      C1022   1.395       .  A
C1021      F1028   1.358       .  S
C1022      C1023   1.399       .  A
C1022      H1027   1.083       .  S
C1023      C1024   1.411       .  A
C1024      F1025   1.358       .  S
C1029      C1030   1.406       .  A
C1029      C1034   1.401       .  A
C1029      H1036   1.083       .  S
C1030      C1031   1.410       .  A
C1031      C1032   1.401       .  A
C1031      F1038   1.357       .  S
C1032      C1033   1.403       .  A
C1032      H1037   1.083       .  S
C1033      C1034   1.405       .  A
C1034      F1035   1.355       .  S
C1039      C1040   1.404       .  A
C1039      C1044   1.402       .  A
C1039      H1046   1.083       .  S
C1040      C1041   1.403       .  A
C1041      C1042   1.398       .  A
C1041      F1048   1.358       .  S
C1042      C1043   1.405       .  A
C1042      H1047   1.084       .  S
C1043      C1044   1.407       .  A
C1044      F1045   1.357       .  S
C1049      C1050   1.400       .  A
C1049      C1054   1.395       .  A
C1049      H1056   1.083       .  S
C1050      C1051   1.402       .  A
C1051      C1052   1.400       .  A
C1051      F1058   1.355       .  S
C1052      C1053   1.407       .  A
C1052      H1057   1.083       .  S
C1053      C1054   1.409       .  A
C1054      F1055   1.357       .  S
C1059      C1060   1.404       .  A
C1059      C1064   1.396       .  A
C1059      H1066   1.083       .  S
C1060      C1061   1.402       .  A
C1061      C1062   1.402       .  A
C1061      F1068   1.356       .  S
C1062      C1063   1.409       .  A
C1062      H1067   1.083       .  S
C1063      C1064   1.409       .  A
C1064      F1065   1.358       .  S
C1069      C1070   1.407       .  A
C1069      C1074   1.395       .  A
C1069      H1076   1.083       .  S
C1070      C1071   1.401       .  A
C1071      C1072   1.396       .  A
C1071      F1078   1.358       .  S
C1072      C1073   1.409       .  A
C1072      H1077   1.083       .  S
C1073      C1074   1.403       .  A
C1074      F1075   1.357       .  S
C1079      C1080   1.400       .  A
C1079      C1084   1.395       .  A
C1079      H1086   1.083       .  S
C1080      C1081   1.412       .  A
C1081      C1082   1.400       .  A
C1081      F1088   1.358       .  S
C1082      C1083   1.401       .  A
C1082      H1087   1.083       .  S
C1083      C1084   1.409       .  A
C1084      F1085   1.358       .  S
C1089      C1090   1.399       .  A
C1089      C1094   1.393       .  A
C1089      H1096   1.084       .  S
C1090      C1091   1.410       .  A
C1091      C1092   1.396       .  A
C1091      F1098   1.358       .  S
C1092      C1093   1.401       .  A
C1092      H1097   1.083       .  S
C1093      C1094   1.409       .  A
C1094      F1095   1.358       .  S
C1099      C1100   1.409       .  A
C1099      C1104   1.397       .  A
C1099      H1106   1.083       .  S
C1100      C1101   1.402       .  A
C1101      C1102   1.397       .  A
C1101      F1108   1.357       .  S
C1102      C1103   1.408       .  A
C1102      H1107   1.083       .  S
C1103      C1104   1.401       .  A
C1104      F1105   1.357       .  S
C1109      C1110   1.406       .  A
C1109      C1114   1.399       .  A
C1109      H1116   1.083       .  S
C1110      C1111   1.406       .  A
C1111      C1112   1.400       .  A
C1111      F1118   1.357       .  S
C1112      C1113   1.406       .  A
C1112      H1117   1.083       .  S
C1113      C1114   1.404       .  A
C1114      F1115   1.357       .  S
C1119      C1120   1.409       .  A
C1119      C1124   1.401       .  A
C1119      H1126   1.083       .  S
C1120      C1121   1.409       .  A
C1121      C1122   1.394       .  A
C1121      F1128   1.357       .  S
C1122      C1123   1.402       .  A
C1122      H1127   1.083       .  S
C1123      C1124   1.402       .  A
C1124      F1125   1.356       .  S
