geometry optimzed in LAMMPS
_audit_creation_date              2020-11-30 
_audit_creation_method            'lammps2cif' 
_symmetry_space_group_name_H-M    'P1' 
_symmetry_Int_Tables_number       1 
_symmetry_cell_setting            triclinic 
loop_ 
_symmetry_equiv_pos_as_xyz 
  x,y,z 
_cell_length_a                    29.03778533 
_cell_length_b                    29.033711146293598 
_cell_length_c                    43.527989341312 
_cell_angle_alpha                 90.0516743186541 
_cell_angle_beta                  90.40444073897797 
_cell_angle_gamma                 119.97890302470024 
loop_ 
_atom_site_label 
_atom_site_type_symbol 
_atom_site_fract_x 
_atom_site_fract_y 
_atom_site_fract_z 
_atom_site_charge 
O1          O  0.91024423  0.95685838  0.32942676    -0.71300
O2          O  0.03972114  0.08854544  0.33547455    -0.71500
O3          O  0.98019445  0.02614709  0.28890486    -0.71300
O4          O  0.96983685  0.01894174  0.37609859    -0.71400
O5          O  0.02313918  0.98664708  0.37708917    -0.71300
O6          O  0.01459647  0.97466926  0.29019640    -0.71300
O7          O  0.08356212  0.04637484  0.33068759    -0.71300
O8          O  0.95396627  0.91500428  0.33664910    -0.71500
V9          V  0.97573647  0.02191217  0.33249119     1.35200
V10         V  0.01803985  0.98140930  0.33364037     1.35200
C11         C  0.90999865  0.91354039  0.33311494     0.78000
C12         C  0.08373703  0.08988087  0.33300887     0.78000
C13         C  0.99770351  0.00008237  0.27473897     0.77900
C14         C  0.99636613  0.00303384  0.39141473     0.77900
O15         O  0.09342360  0.53947578  0.33129456    -0.71300
O16         O  0.96310771  0.40847296  0.33463626    -0.71500
O17         O  0.02509715  0.47069585  0.28935938    -0.71300
O18         O  0.03132991  0.47723753  0.37664793    -0.71400
O19         O  0.98028195  0.51215095  0.37623423    -0.71300
O20         O  0.98942851  0.52108003  0.28929474    -0.71300
O21         O  0.91980659  0.45123253  0.32971618    -0.71300
O22         O  0.05004527  0.58217519  0.33570643    -0.71500
V23         V  0.02747122  0.47474120  0.33299342     1.35200
V24         V  0.98569330  0.51589001  0.33275456     1.35200
C25         C  0.09391231  0.58315156  0.33348747     0.78000
C26         C  0.91927621  0.40757648  0.33202044     0.78000
C27         C  0.00763496  0.49627617  0.27452837     0.77900
C28         C  0.00528645  0.49424260  0.39124739     0.77900
O29         O  0.54804807  0.08537732  0.33277515    -0.71300
O30         O  0.41674093  0.95521540  0.33279083    -0.71500
O31         O  0.48210241  0.02116213  0.37644817    -0.71300
O32         O  0.48279526  0.01944077  0.28919439    -0.71400
O33         O  0.52313934  0.97340339  0.29009239    -0.71300
O34         O  0.52739083  0.98003187  0.37724557    -0.71300
O35         O  0.45948482  0.91158447  0.33495386    -0.71300
O36         O  0.59082082  0.04170660  0.33241117    -0.71500
V37         V  0.48325186  0.01945494  0.33281677     1.35200
V38         V  0.52434226  0.97748781  0.33367292     1.35200
C39         C  0.59171217  0.08567070  0.33235774     0.78000
C40         C  0.41580342  0.91126642  0.33402372     0.78000
C41         C  0.50520582  0.00139044  0.39164994     0.77900
C42         C  0.50278646  0.99587565  0.27483294     0.77900
O43         O  0.45524423  0.41150969  0.33295926    -0.71300
O44         O  0.58734758  0.54102591  0.33503505    -0.71500
O45         O  0.51956081  0.47670685  0.37756604    -0.71300
O46         O  0.52301971  0.47571848  0.29035005    -0.71400
O47         O  0.47971077  0.51883168  0.28890880    -0.71300
O48         O  0.47918730  0.52268832  0.37612579    -0.71300
O49         O  0.54528026  0.58527329  0.33218951    -0.71300
O50         O  0.41319936  0.45589961  0.33276639    -0.71500
V51         V  0.52045407  0.47707644  0.33396141     1.35200
V52         V  0.48012641  0.51977505  0.33251631     1.35200
C53         C  0.41179675  0.41168993  0.33263299     0.78000
C54         C  0.58869723  0.58518577  0.33381721     0.78000
C55         C  0.49934786  0.50031005  0.39166631     0.77900
C56         C  0.50182394  0.49708077  0.27481543     0.77900
O57         O  0.95625109  0.04271153  0.99811975    -0.71300
O58         O  0.08610691  0.04079918  0.00097316    -0.71500
O59         O  0.02252820  0.04007748  0.95595202    -0.71300
O60         O  0.02011657  0.04344904  0.04308946    -0.71400
O61         O  0.98164397  0.95718498  0.04391087    -0.71300
O62         O  0.97279243  0.95397131  0.95676060    -0.71300
O63         O  0.04218018  0.95444936  0.99861898    -0.71300
O64         O  0.91257903  0.95660729  0.00214981    -0.71500
V65         V  0.02043462  0.04013854  0.99954004     1.35200
V66         V  0.97814540  0.95716901  0.00033471     1.35200
C67         C  0.91229515  0.99990550  0.00017615     0.78000
C68         C  0.08624206  0.99735487  0.99985874     0.78000
C69         C  0.99696048  0.99652031  0.94159332     0.77900
C70         C  0.00135091  0.00086963  0.05829481     0.77900
O71         O  0.04596221  0.46378167  0.99849511    -0.71300
O72         O  0.91494451  0.46321882  0.00096064    -0.71500
O73         O  0.97753246  0.46320941  0.95612025    -0.71300
O74         O  0.98319685  0.46348318  0.04322837    -0.71400
O75         O  0.02128427  0.54973072  0.04353623    -0.71300
O76         O  0.02518193  0.54949208  0.95621567    -0.71300
O77         O  0.95771382  0.54951575  0.99844453    -0.71300
O78         O  0.08871855  0.55009625  0.00133178    -0.71500
V79         V  0.98120841  0.46507845  0.99969541     1.35200
V80         V  0.02238725  0.54808733  0.99987092     1.35200
C81         C  0.08962951  0.50707526  0.00002599     0.78000
C82         C  0.91406639  0.50627650  0.99969823     0.78000
C83         C  0.00124948  0.50622047  0.94135670     0.77900
C84         C  0.00265542  0.50655919  0.05818851     0.77900
O85         O  0.54485669  0.95740760  0.99654919    -0.71300
O86         O  0.41205066  0.95253146  0.00306884    -0.71500
O87         O  0.47281146  0.95484798  0.95626946    -0.71300
O88         O  0.48410739  0.95497389  0.04330014    -0.71400
O89         O  0.51637018  0.04057477  0.04369060    -0.71300
O90         O  0.52169964  0.04103360  0.95652097    -0.71300
O91         O  0.45269054  0.03851343  0.99845053    -0.71300
O92         O  0.58571899  0.04338088  0.00173633    -0.71500
V93         V  0.47919190  0.95647233  0.99979675     1.35200
V94         V  0.51838729  0.03932819  0.00009916     1.35200
C95         C  0.58791470  0.00120618  0.99880770     0.78000
C96         C  0.40981111  0.99481719  0.00111065     0.78000
C97         C  0.49698302  0.99795915  0.94158336     0.77900
C98         C  0.50040852  0.99769762  0.05829253     0.77900
O99         O  0.45629093  0.54740665  0.99833371    -0.71300
O100        O  0.58832181  0.55027841  0.00203610    -0.71500
O101        O  0.52498130  0.54906800  0.95657391    -0.71300
O102        O  0.51944623  0.54818730  0.04377935    -0.71400
O103        O  0.48558178  0.46235982  0.04323369    -0.71300
O104        O  0.47586353  0.46290306  0.95618769    -0.71300
O105        O  0.54670626  0.46423840  0.99710777    -0.71300
O106        O  0.41463874  0.46131193  0.00237380    -0.71500
V107        V  0.52148954  0.54716726  0.00017033     1.35200
V108        V  0.48142371  0.46426009  0.99972131     1.35200
C109        C  0.41302106  0.50394924  0.00040048     0.78000
C110        C  0.58998723  0.50775978  0.99964115     0.78000
C111        C  0.50009027  0.50605005  0.94157427     0.77900
C112        C  0.50308526  0.50515864  0.05829732     0.77900
O113        O  0.03532308  0.95148724  0.66652216    -0.71300
O114        O  0.03639550  0.08297409  0.66690233    -0.71500
O115        O  0.03622495  0.01733614  0.71025168    -0.71300
O116        O  0.03585429  0.01733246  0.62305984    -0.71400
O117        O  0.94946245  0.97591255  0.62279915    -0.71300
O118        O  0.94981652  0.97399481  0.71018101    -0.71300
O119        O  0.94998255  0.04014097  0.66713520    -0.71300
O120        O  0.94891916  0.90897805  0.66584182    -0.71500
V121        V  0.03426913  0.01643988  0.66668262     1.35200
V122        V  0.95122980  0.97551067  0.66647601     1.35200
C123        C  0.99187749  0.90787241  0.66608205     0.78000
C124        C  0.99327858  0.08379752  0.66720938     0.78000
C125        C  0.99322789  0.99586508  0.72504613     0.77900
C126        C  0.99262197  0.99713033  0.60810458     0.77900
O127        O  0.95238915  0.54057426  0.66760628    -0.71300
O128        O  0.95371450  0.41041793  0.66454786    -0.71500
O129        O  0.95331082  0.47300725  0.70968453    -0.71300
O130        O  0.95246485  0.47744597  0.62246410    -0.71400
O131        O  0.03875462  0.51644503  0.62268058    -0.71300
O132        O  0.03949714  0.52161164  0.70995944    -0.71300
O133        O  0.04002213  0.45424930  0.66758173    -0.71300
O134        O  0.03863694  0.58411199  0.66495114    -0.71500
V135        V  0.95459878  0.47622189  0.66608908     1.35200
V136        V  0.03758704  0.51830002  0.66629255     1.35200
C137        C  0.99538925  0.58451446  0.66631140     0.78000
C138        C  0.99713349  0.41027589  0.66595675     0.78000
C139        C  0.99647356  0.49729377  0.72464806     0.77900
C140        C  0.99546457  0.49650470  0.60774942     0.77900
O141        O  0.54893722  0.02595231  0.71022742    -0.71300
O142        O  0.54767620  0.02118946  0.62297078    -0.71500
O143        O  0.54714791  0.08836401  0.66538596    -0.71300
O144        O  0.54939406  0.95871965  0.66770811    -0.71400
O145        O  0.46311921  0.91473115  0.66445065    -0.71300
O146        O  0.46094847  0.04430511  0.66848237    -0.71300
O147        O  0.46141347  0.98287112  0.62293908    -0.71300
O148        O  0.46283320  0.97653629  0.71010067    -0.71500
V149        V  0.54667285  0.02273645  0.66657588     1.35200
V150        V  0.46370428  0.98037897  0.66651543     1.35200
C151        C  0.50606099  0.00116174  0.72499384     0.78000
C152        C  0.50438628  0.00251975  0.60816511     0.78000
C153        C  0.50367186  0.08836792  0.66685522     0.77900
C154        C  0.50656669  0.91465180  0.66598440     0.77900
O155        O  0.54323822  0.58525709  0.66504962    -0.71300
O156        O  0.54004078  0.45303722  0.66958464    -0.71500
O157        O  0.54268717  0.51556590  0.62368223    -0.71300
O158        O  0.54045823  0.52240447  0.71082171    -0.71400
O159        O  0.45429379  0.47356947  0.70964498    -0.71300
O160        O  0.45687508  0.48171072  0.62252261    -0.71300
O161        O  0.45411129  0.41139223  0.66392033    -0.71300
O162        O  0.45705924  0.54348633  0.66827270    -0.71500
V163        V  0.54004971  0.51831545  0.66725504     1.35200
V164        V  0.45715898  0.47827597  0.66610118     1.35200
C165        C  0.50060875  0.58682789  0.66680438     0.78000
C166        C  0.49664300  0.40976150  0.66670695     0.78000
C167        C  0.50012399  0.49868223  0.60831477     0.77900
C168        C  0.49697081  0.49805261  0.72504526     0.77900
C169        C  0.52991396  0.72186225  0.66672255     0.20800
C170        C  0.56168779  0.77747480  0.66592029    -0.39000
C171        C  0.53408660  0.80569161  0.66606341     0.19800
C172        C  0.47911546  0.78037871  0.66685984     0.22500
C173        C  0.44742020  0.72487806  0.66778364    -0.39500
C174        C  0.47496916  0.69672717  0.66770060     0.21300
N175        N  0.54627552  0.68596573  0.66641534    -0.32800
C176        C  0.50133529  0.63775559  0.66718080    -0.10400
C177        C  0.45613167  0.64285523  0.66811416    -0.29200
N178        N  0.46243824  0.81595568  0.66670948    -0.45800
C179        C  0.50707830  0.86431990  0.66594710    -0.05100
C180        C  0.55260843  0.85962629  0.66552657    -0.22400
H181        H  0.60464590  0.79727656  0.66516935     0.19400
H182        H  0.40445431  0.70506386  0.66842912     0.18200
H183        H  0.41502418  0.61135027  0.66873792     0.14500
H184        H  0.59361802  0.89135529  0.66494492     0.14300
H185        H  0.58544933  0.69373100  0.66558111     0.32500
H186        H  0.42313797  0.80785157  0.66728849     0.35200
C187        C  0.47407257  0.19388769  0.66463540     0.20800
C188        C  0.44215403  0.21757547  0.66294796    -0.39000
C189        C  0.46944190  0.27334857  0.66448143     0.19800
C190        C  0.52423543  0.30303985  0.66745882     0.22500
C191        C  0.55608117  0.27940592  0.66894465    -0.39500
C192        C  0.52887747  0.22378930  0.66738680     0.21300
N193        N  0.45795954  0.14169604  0.66415243    -0.32800
C194        C  0.50291071  0.13856111  0.66652069    -0.10400
C195        C  0.54791287  0.18890466  0.66847220    -0.29200
N196        N  0.54063113  0.35517064  0.66871385    -0.45800
C197        C  0.49605122  0.35887202  0.66646658    -0.05100
C198        C  0.45076819  0.30868949  0.66375806    -0.22400
H199        H  0.39930448  0.19433163  0.66077646     0.19400
H200        H  0.59890479  0.30263062  0.67128824     0.18200
H201        H  0.58895677  0.19860958  0.67064650     0.14500
H202        H  0.40984414  0.29938924  0.66160801     0.14300
H203        H  0.41890212  0.11020888  0.66229746     0.32500
H204        H  0.57977877  0.38634181  0.67094148     0.35200
C205        C  0.01886472  0.80057758  0.66533978     0.20800
C206        C  0.05028695  0.77638884  0.66482891    -0.39000
C207        C  0.02244452  0.72067054  0.66551235     0.19800
C208        C  0.96749215  0.69124356  0.66662991     0.22500
C209        C  0.93602757  0.71544347  0.66706245    -0.39500
C210        C  0.96389849  0.77122353  0.66636241     0.21300
N211        N  0.03578750  0.85290934  0.66507469    -0.32800
C212        C  0.99129739  0.85694713  0.66589230    -0.10400
C213        C  0.94564682  0.80685941  0.66667830    -0.29200
N214        N  0.95073090  0.63891807  0.66716319    -0.45800
C215        C  0.99537143  0.63511470  0.66632181    -0.05100
C216        C  0.04086221  0.68523277  0.66529261    -0.22400
H217        H  0.09325326  0.79927062  0.66401556     0.19400
H218        H  0.89306562  0.69255761  0.66793089     0.18200
H219        H  0.90471406  0.79780570  0.66751117     0.14500
H220        H  0.08184626  0.69444547  0.66446251     0.14300
H221        H  0.07515905  0.88395763  0.66441941     0.32500
H222        H  0.91142878  0.60776223  0.66797623     0.35200
C223        C  0.96991764  0.27619422  0.66613427     0.20800
C224        C  0.93837102  0.22064104  0.66633060    -0.39000
C225        C  0.96617853  0.19274606  0.66716369     0.19800
C226        C  0.02118749  0.21822628  0.66778207     0.22500
C227        C  0.05275196  0.27382250  0.66768401    -0.39500
C228        C  0.02492923  0.30173944  0.66682454     0.21300
N229        N  0.95307851  0.31162587  0.66544818    -0.32800
C230        C  0.99767934  0.36004963  0.66583381    -0.10400
C231        C  0.04331745  0.35559540  0.66661140    -0.29200
N232        N  0.03793919  0.18267965  0.66807597    -0.45800
C233        C  0.99323896  0.13430297  0.66759425    -0.05100
C234        C  0.94769841  0.13891444  0.66711129    -0.22400
H235        H  0.89537381  0.20063016  0.66577211     0.19400
H236        H  0.09574946  0.29383478  0.66814989     0.18200
H237        H  0.08430814  0.38742905  0.66713650     0.14500
H238        H  0.90667070  0.10716619  0.66649938     0.14300
H239        H  0.91372455  0.30340111  0.66498401     0.32500
H240        H  0.07725893  0.19079145  0.66836650     0.35200
C241        C  0.47452886  0.48175559  0.86120502     0.20800
C242        C  0.44601690  0.45519183  0.83458283    -0.39000
C243        C  0.47108634  0.47759013  0.80669353     0.19800
C244        C  0.52105174  0.52248333  0.80548276     0.22500
C245        C  0.54918396  0.54946653  0.83207244    -0.39500
C246        C  0.52377543  0.52757986  0.85992384     0.21300
N247        N  0.45982752  0.46814587  0.89050052    -0.32800
C248        C  0.49963393  0.50607982  0.90789482    -0.10400
C249        C  0.54008685  0.54397633  0.88970184    -0.29200
N250        N  0.53673240  0.53512380  0.77626152    -0.45800
C251        C  0.49617672  0.49847350  0.75873719    -0.05100
C252        C  0.45438807  0.46202247  0.77683643    -0.22400
H253        H  0.40726393  0.41970362  0.83551699     0.19400
H254        H  0.58800782  0.58485977  0.83114039     0.18200
H255        H  0.57689643  0.57819514  0.89728094     0.14500
H256        H  0.41717483  0.42841664  0.76917393     0.14300
H257        H  0.42480881  0.43535602  0.89820796     0.32500
H258        H  0.57254430  0.56701841  0.76868003     0.35200
C259        C  0.47938133  0.97863166  0.80515514     0.20800
C260        C  0.44994641  0.95278910  0.83135341    -0.39000
C261        C  0.47422685  0.97554341  0.85958855     0.19800
C262        C  0.52363013  0.02113881  0.86153191     0.22500
C263        C  0.55343866  0.04652667  0.83533718    -0.39500
C264        C  0.52950424  0.02325397  0.80709666     0.21300
N265        N  0.46482002  0.96517409  0.77569277    -0.32800
C266        C  0.50618366  0.00103510  0.75874278    -0.10400
C267        C  0.54746210  0.03777001  0.77748215    -0.29200
N268        N  0.53746837  0.03539420  0.89099777    -0.45800
C269        C  0.49704702  0.99808132  0.90789617    -0.05100
C270        C  0.45692095  0.95994840  0.88918089    -0.22400
H271        H  0.41103986  0.91753421  0.82985357     0.19400
H272        H  0.59235867  0.08176602  0.83684206     0.18200
H273        H  0.58500291  0.07110349  0.77037484     0.14500
H274        H  0.42003018  0.92573445  0.89628280     0.14300
H275        H  0.42900647  0.93344726  0.76758982     0.32500
H276        H  0.57267590  0.06786502  0.89916297     0.35200
C277        C  0.69772449  0.48168399  0.99997257     0.20800
C278        C  0.72210469  0.45047452  0.99931578    -0.39000
C279        C  0.77779281  0.47856305  0.99974656     0.19800
C280        C  0.80702652  0.53356661  0.00075585     0.22500
C281        C  0.78262434  0.56483450  0.00160588    -0.39500
C282        C  0.72684031  0.53669130  0.00115906     0.21300
N283        N  0.64537877  0.46448124  0.99927086    -0.32800
C284        C  0.64106762  0.50880968  0.00002458    -0.10400
C285        C  0.69098918  0.55467011  0.00131495    -0.29200
N286        N  0.85938347  0.55055628  0.00070562    -0.45800
C287        C  0.86335989  0.50599374  0.99977732    -0.05100
C288        C  0.81335527  0.46033926  0.99916031    -0.22400
H289        H  0.69937702  0.40748362  0.99836901     0.19400
H290        H  0.80535859  0.60783710  0.00237924     0.18200
H291        H  0.69979854  0.59555089  0.00205316     0.14500
H292        H  0.80429473  0.41938389  0.99834895     0.14300
H293        H  0.61449162  0.42502741  0.99827597     0.32500
H294        H  0.89045400  0.58995297  0.00137318     0.35200
C295        C  0.19660247  0.47970434  0.00133559     0.20800
C296        C  0.22079645  0.44827761  0.00255429    -0.39000
C297        C  0.27649776  0.47605469  0.00141671     0.19800
C298        C  0.30578138  0.53090961  0.99915885     0.22500
C299        C  0.28160494  0.56234107  0.99798716    -0.38300
C300        C  0.22593192  0.53458023  0.99923545     0.21300
N301        N  0.14431851  0.46291438  0.00191688    -0.32800
C302        C  0.14038684  0.50743329  0.00025284    -0.10400
C303        C  0.19042254  0.55293948  0.99862959    -0.29200
N304        N  0.35804363  0.54771490  0.99848495    -0.45800
C305        C  0.36208739  0.50327395  0.00039644    -0.05100
C306        C  0.31208732  0.45775822  0.00223649    -0.22400
H307        H  0.19794620  0.40539119  0.00427520     0.19400
H308        H  0.30445501  0.60523077  0.99626915     0.18200
H309        H  0.19951479  0.59383652  0.99701608     0.14500
H310        H  0.30305504  0.41689487  0.00395874     0.14300
H311        H  0.11324851  0.42364382  0.00337665     0.32500
H312        H  0.38905519  0.58699430  0.99687895     0.35200
C313        C  0.02148596  0.52204879  0.80509127     0.20800
C314        C  0.04910962  0.54993989  0.83161299    -0.39000
C315        C  0.02453114  0.52740141  0.85956840     0.19800
C316        C  0.97655786  0.48015906  0.86100574     0.22500
C317        C  0.94849098  0.45267912  0.83446311    -0.39500
C318        C  0.97267915  0.47571498  0.80647722     0.21300
N319        N  0.03648155  0.53516957  0.77579126    -0.32800
C320        C  0.99656347  0.49742029  0.75839093    -0.10400
C321        C  0.95594535  0.45973106  0.77666297    -0.29200
N322        N  0.96233878  0.46644081  0.89035189    -0.45800
C323        C  0.00107531  0.50571271  0.90764638    -0.05100
C324        C  0.04045504  0.54455395  0.88931312    -0.22400
H325        H  0.08691528  0.58653898  0.83055437     0.19400
H326        H  0.91062743  0.41613587  0.83552474     0.18200
H327        H  0.91938993  0.42515669  0.76912756     0.14500
H328        H  0.07624598  0.58003341  0.89677551     0.14300
H329        H  0.07131160  0.56819334  0.76807653     0.32500
H330        H  0.92815928  0.43278189  0.89815892     0.35200
C331        C  0.69615111  0.97592678  0.99789514     0.20800
C332        C  0.72056194  0.94475040  0.99791124    -0.39000
C333        C  0.77621631  0.97282556  0.99900470     0.19800
C334        C  0.80547813  0.02782736  0.99988940     0.22500
C335        C  0.78100778  0.05910701  0.00001202    -0.39500
C336        C  0.72517875  0.03093823  0.99902190     0.21300
N337        N  0.64378899  0.95858692  0.99727172    -0.32800
C338        C  0.63926006  0.00277397  0.99821617    -0.10400
C339        C  0.68915028  0.04876576  0.99923835    -0.29200
N340        N  0.85786694  0.04473139  0.00050628    -0.45800
C341        C  0.86175553  0.00007902  0.00010177    -0.05100
C342        C  0.81169918  0.95451534  0.99924476    -0.22400
H343        H  0.69785727  0.90174737  0.99717465     0.19400
H344        H  0.80370877  0.10210586  0.00086122     0.18200
H345        H  0.69781100  0.08958356  0.00026702     0.14500
H346        H  0.80255045  0.91352429  0.99861740     0.14300
H347        H  0.61299254  0.91907009  0.99662266     0.32500
H348        H  0.88899305  0.08410295  0.00113129     0.35200
C349        C  0.30208782  0.02079000  0.00082354     0.20800
C350        C  0.27779976  0.05201514  0.99922260    -0.39000
C351        C  0.22216637  0.02411480  0.99998227     0.19800
C352        C  0.19283370  0.96924374  0.00211885     0.22500
C353        C  0.21718854  0.93794718  0.00386996    -0.39500
C354        C  0.27297407  0.96592275  0.00312710     0.21300
N355        N  0.35434643  0.03784776  0.00003940    -0.32800
C356        C  0.35868541  0.99360671  0.00182206    -0.10400
C357        C  0.30882069  0.94789764  0.00388523    -0.29200
N358        N  0.14049128  0.95246527  0.00214816    -0.45800
C359        C  0.13669490  0.99706421  0.00013941    -0.05100
C360        C  0.18676265  0.04247625  0.99876948    -0.22400
H361        H  0.30056141  0.09489192  0.99737478     0.19400
H362        H  0.19442041  0.89504515  0.00551604     0.18200
H363        H  0.30003170  0.90708898  0.00539964     0.14500
H364        H  0.19596810  0.08339770  0.99707206     0.14300
H365        H  0.38518998  0.07719382  0.99816990     0.32500
H366        H  0.10932119  0.91319643  0.00359978     0.35200
C367        C  0.96775504  0.98376506  0.80570192     0.20800
C368        C  0.93722228  0.96744918  0.83253785    -0.39000
C369        C  0.96611668  0.98154506  0.86025886     0.19800
C370        C  0.02115987  0.01066408  0.86115096     0.22500
C371        C  0.05164789  0.02667877  0.83435171    -0.39500
C372        C  0.02279633  0.01187858  0.80666923     0.21300
N373        N  0.94999056  0.97457824  0.77648369    -0.32800
C374        C  0.99410311  0.99673082  0.75880665    -0.10400
C375        C  0.04021803  0.02038220  0.77680034    -0.29200
N376        N  0.03911263  0.01983493  0.89028975    -0.45800
C377        C  0.99524202  0.99556925  0.90799999    -0.05100
C378        C  0.94894734  0.97108103  0.89021805    -0.22400
H379        H  0.89420763  0.94504652  0.83188033     0.19400
H380        H  0.09467157  0.04878638  0.83500466     0.18200
H381        H  0.08098712  0.04087610  0.76904338     0.14500
H382        H  0.90833095  0.94944490  0.89818132     0.14300
H383        H  0.91038425  0.95423995  0.76903274     0.32500
H384        H  0.07870913  0.04074923  0.89772008     0.35200
C385        C  0.48533362  0.51115764  0.52790906     0.20800
C386        C  0.46891101  0.52625352  0.50121824    -0.39000
C387        C  0.48466498  0.51418985  0.47337324     0.19800
C388        C  0.51398620  0.48852050  0.47227600     0.22500
C389        C  0.53084610  0.47391468  0.49894714    -0.39500
C390        C  0.51582232  0.48671197  0.52677572     0.21300
N391        N  0.47544735  0.51801354  0.55715450    -0.32800
C392        C  0.50072617  0.49879356  0.57467602    -0.10400
C393        C  0.52650526  0.47906007  0.55664777    -0.29200
N394        N  0.52299788  0.48059545  0.44307682    -0.45800
C395        C  0.49945963  0.50151373  0.42541396    -0.05100
C396        C  0.47534422  0.52313938  0.44345403    -0.22400
H397        H  0.44561418  0.54592272  0.50207694     0.19400
H398        H  0.55411379  0.45421527  0.49808307     0.18200
H399        H  0.54926662  0.46093457  0.56437364     0.14500
H400        H  0.45349606  0.54222868  0.43572224     0.14300
H401        H  0.45360991  0.53542255  0.56478741     0.32500
H402        H  0.54377437  0.46196234  0.43561139     0.35200
C403        C  0.49644863  0.51788058  0.19446610     0.20800
C404        C  0.48825660  0.54064581  0.16812778    -0.39000
C405        C  0.49718679  0.52286760  0.14010394     0.19800
C406        C  0.51224232  0.48458687  0.13837995     0.22500
C407        C  0.52145808  0.46248704  0.16480677    -0.39500
C408        C  0.51316565  0.48085046  0.19293537     0.21300
N409        N  0.48989614  0.52774664  0.22373276    -0.32800
C410        C  0.50311696  0.49734979  0.24108832    -0.10400
C411        C  0.51806666  0.46759518  0.22275483    -0.29200
N412        N  0.51592574  0.47299792  0.10890989    -0.45800
C413        C  0.50408671  0.50490983  0.09194341    -0.05100
C414        C  0.49252418  0.53678636  0.11052060    -0.22400
H415        H  0.47557497  0.56987972  0.16937028     0.19400
H416        H  0.53376604  0.43296636  0.16355628     0.18200
H417        H  0.53034613  0.43978041  0.23022366     0.14500
H418        H  0.48107053  0.56534898  0.10330624     0.14300
H419        H  0.47754544  0.55389086  0.23145267     0.32500
H420        H  0.52627084  0.44552820  0.10080895     0.35200
C421        C  0.52666113  0.00163909  0.52783474     0.20800
C422        C  0.55091444  0.99667100  0.50128936    -0.39000
C423        C  0.52857216  0.00022321  0.47338913     0.19800
C424        C  0.48590168  0.00899023  0.47199770     0.22500
C425        C  0.46110339  0.01317173  0.49857930    -0.39500
C426        C  0.48287447  0.00864624  0.52652464     0.21300
N427        N  0.54025238  0.99933612  0.55709278    -0.32800
C428        C  0.50421030  0.00376334  0.57451308    -0.10400
C429        C  0.46767173  0.00952892  0.55635263    -0.29200
N430        N  0.47255967  0.01137091  0.44265534    -0.45800
C431        C  0.50646549  0.00318817  0.42534972    -0.05100
C432        C  0.54189566  0.99598724  0.44366594    -0.22400
H433        H  0.58448338  0.99015433  0.50229046     0.19400
H434        H  0.42714837  0.01907111  0.49757325     0.18200
H435        H  0.43482800  0.01419756  0.56397535     0.14500
H436        H  0.57322113  0.98876154  0.43620622     0.14300
H437        H  0.57145333  0.99403072  0.56476677     0.32500
H438        H  0.44176146  0.01724084  0.43487837     0.35200
C439        C  0.49398692  0.01359353  0.19436676     0.20800
C440        C  0.48569851  0.03584869  0.16780298    -0.39000
C441        C  0.49311053  0.01639484  0.13991867     0.19800
C442        C  0.50667295  0.97698169  0.13857980     0.22500
C443        C  0.51559779  0.95515700  0.16517809    -0.39500
C444        C  0.50902140  0.97526272  0.19310267     0.21300
N445        N  0.48960518  0.02547941  0.22360876    -0.32800
C446        C  0.50242977  0.99491295  0.24111406    -0.10400
C447        C  0.51498729  0.96315945  0.22295464    -0.29200
N448        N  0.51040645  0.96479107  0.10926176    -0.45800
C449        C  0.50021042  0.99746901  0.09194058    -0.05100
C450        C  0.48935815  0.03030104  0.11016778    -0.22400
H451        H  0.47458929  0.06628209  0.16878290     0.19400
H452        H  0.52697638  0.92492215  0.16419974     0.18200
H453        H  0.52651982  0.93485153  0.23057338     0.14500
H454        H  0.47947926  0.05985742  0.10262494     0.14300
H455        H  0.47894214  0.05299027  0.23120321     0.32500
H456        H  0.52017254  0.93671453  0.10148888     0.35200
C457        C  0.97618664  0.48923581  0.47107311     0.20800
C458        C  0.94583175  0.48456591  0.49708265    -0.39000
C459        C  0.97075328  0.48883458  0.52552324     0.19800
C460        C  0.02218753  0.49778956  0.52778589     0.22500
C461        C  0.05214759  0.50153535  0.50181035    -0.39500
C462        C  0.02699033  0.49650777  0.47341307     0.21300
N463        N  0.96210925  0.48772878  0.44146679    -0.32800
C464        C  0.00390182  0.49319860  0.42492187    -0.10400
C465        C  0.04500830  0.49842953  0.44398391    -0.29200
N466        N  0.03747833  0.50202330  0.55731291    -0.45800
C467        C  0.99533249  0.49510773  0.57402074    -0.05100
C468        C  0.95276920  0.48645197  0.55504962    -0.22400
H469        H  0.90592994  0.47838728  0.49530154     0.19400
H470        H  0.09219946  0.50812704  0.50358779     0.18200
H471        H  0.08327334  0.50406495  0.43720315     0.14500
H472        H  0.91425367  0.48002344  0.56193257     0.14300
H473        H  0.92619310  0.48291402  0.43299599     0.32500
H474        H  0.07421743  0.50883419  0.56561803     0.35200
C475        C  0.78484557  0.30102273  0.33008098     0.20800
C476        C  0.72931505  0.27710382  0.32837851    -0.39000
C477        C  0.70115967  0.22145336  0.33000118     0.19800
C478        C  0.72638075  0.19188095  0.33297437     0.22500
C479        C  0.78192655  0.21581685  0.33474053    -0.39500
C480        C  0.81008956  0.27149519  0.33319650     0.21300
N481        N  0.82051703  0.35322908  0.32918738    -0.32800
C482        C  0.86879473  0.35693342  0.33177568    -0.10400
C483        C  0.86396015  0.30683155  0.33434395    -0.29200
N484        N  0.69064412  0.13968475  0.33403068    -0.45800
C485        C  0.64237253  0.13610361  0.33184621    -0.05100
C486        C  0.64727756  0.18622591  0.32929660    -0.22400
H487        H  0.70949830  0.30012005  0.32604688     0.19400
H488        H  0.80173512  0.19281251  0.33719316     0.18200
H489        H  0.89557662  0.29757549  0.33677562     0.14500
H490        H  0.61567416  0.19557205  0.32724017     0.14300
H491        H  0.81253164  0.38438083  0.32702388     0.32500
H492        H  0.69856241  0.10849281  0.33629305     0.35200
C493        C  0.30919577  0.77679626  0.33261310     0.20800
C494        C  0.28540729  0.72127257  0.33098247    -0.39000
C495        C  0.22971666  0.69298311  0.33188504     0.19800
C496        C  0.19997717  0.71808093  0.33420492     0.22500
C497        C  0.22377172  0.77367675  0.33566081    -0.39500
C498        C  0.27952459  0.80199400  0.33476275     0.21300
N499        N  0.36141400  0.81249295  0.33233625    -0.32800
C500        C  0.36506988  0.86080255  0.33416948    -0.10400
C501        C  0.31484536  0.85594724  0.33572327    -0.29200
N502        N  0.14779421  0.68218130  0.33503783    -0.45800
C503        C  0.14436684  0.63393263  0.33326677    -0.05100
C504        C  0.19460860  0.63903934  0.33116842    -0.22400
H505        H  0.30857051  0.70154723  0.32927765     0.19400
H506        H  0.20061568  0.79339669  0.33747101     0.18200
H507        H  0.30549910  0.88758680  0.33731719     0.14500
H508        H  0.20413107  0.60752879  0.32951896     0.14300
H509        H  0.39261898  0.80451308  0.33078439     0.32500
H510        H  0.11649467  0.68998481  0.33680303     0.35200
C511        C  0.01013791  0.52446080  0.19470578     0.20800
C512        C  0.01204472  0.55389661  0.16873126    -0.39000
C513        C  0.00910550  0.52975523  0.14033465     0.19800
C514        C  0.00395058  0.47981139  0.13803953     0.22500
C515        C  0.00302410  0.45077817  0.16401544    -0.39500
C516        C  0.00666273  0.47523504  0.19241926     0.21300
N517        N  0.01083655  0.53803822  0.22425380    -0.32800
C518        C  0.00858704  0.49756459  0.24087542    -0.10400
C519        C  0.00631096  0.45776474  0.22189952    -0.29200
N520        N  0.00034323  0.46503776  0.10848742    -0.45800
C521        C  0.00402375  0.50618172  0.09187660    -0.05100
C522        C  0.00973310  0.54740667  0.11088287    -0.22400
H523        H  0.01521175  0.59256626  0.17051079     0.19400
H524        H  0.99939878  0.41190892  0.16223964     0.18200
H525        H  0.00346412  0.42060894  0.22876143     0.14500
H526        H  0.01326746  0.58487667  0.10406631     0.14300
H527        H  0.01289697  0.57274969  0.23263213     0.32500
H528        H  0.99624532  0.42944404  0.10010218     0.35200
C529        C  0.01916869  0.00631622  0.52765397     0.20800
C530        C  0.04885535  0.01283273  0.50108402    -0.39000
C531        C  0.02223964  0.00753857  0.47315400     0.19800
C532        C  0.97033664  0.99743845  0.47176217     0.22500
C533        C  0.94035666  0.99001152  0.49834055    -0.39500
C534        C  0.96674370  0.99457196  0.52628244     0.21300
N535        N  0.03530689  0.00931552  0.55697616    -0.32800
C536        C  0.99253504  0.99855288  0.57435572    -0.10400
C537        C  0.94904182  0.98912490  0.55606290    -0.29200
N538        N  0.95461544  0.99552088  0.44242194    -0.45800
C539        C  0.99658597  0.00356315  0.42511246    -0.05100
C540        C  0.03933059  0.01090152  0.44340088    -0.22400
H541        H  0.08960581  0.02127862  0.50207297     0.19400
H542        H  0.89951683  0.98128444  0.49734711     0.18200
H543        H  0.90988370  0.97983015  0.56357325     0.14500
H544        H  0.07784027  0.01816528  0.43588460     0.14300
H545        H  0.07273852  0.01746079  0.56466436     0.32500
H546        H  0.91745639  0.98821443  0.43463728     0.35200
C547        C  0.69547682  0.71917985  0.33043581     0.20800
C548        C  0.71948026  0.77410307  0.32560462    -0.39000
C549        C  0.77475214  0.80301670  0.32970630     0.19800
C550        C  0.80394168  0.77906644  0.33798224     0.22500
C551        C  0.77990548  0.72402546  0.34281014    -0.39500
C552        C  0.72452959  0.69502791  0.33861312     0.21300
N553        N  0.64357902  0.68312148  0.32787163    -0.32800
C554        C  0.63946033  0.63555853  0.33424262    -0.10400
C555        C  0.68908886  0.64125755  0.34107064    -0.29200
N556        N  0.85591659  0.81537563  0.34022826    -0.45800
C557        C  0.85969058  0.86268677  0.33336547    -0.05100
C558        C  0.80991653  0.85660777  0.32672335    -0.22400
H559        H  0.69678001  0.79291999  0.31906536     0.19400
H560        H  0.80263804  0.70517892  0.34921541     0.18200
H561        H  0.69794984  0.61032316  0.34707504     0.14500
H562        H  0.80076669  0.88723307  0.32043410     0.14300
H563        H  0.61287920  0.69035891  0.32191001     0.32500
H564        H  0.88685322  0.80845378  0.34609598     0.35200
C565        C  0.27693683  0.30579800  0.33489051     0.20800
C566        C  0.22172211  0.28172357  0.33880037    -0.39000
C567        C  0.19309012  0.22617104  0.33556654     0.19800
C568        C  0.21765791  0.19696387  0.32897374     0.22500
C569        C  0.27278954  0.22100735  0.32508071    -0.39500
C570        C  0.30138645  0.27645201  0.32838393     0.21300
N571        N  0.31307767  0.35785322  0.33699629    -0.32800
C572        C  0.36082639  0.36148481  0.33201682    -0.10400
C573        C  0.35515207  0.31159144  0.32653313    -0.29200
N574        N  0.18184205  0.14485177  0.32726488    -0.45800
C575        C  0.13406794  0.14075803  0.33275009    -0.05100
C576        C  0.13938696  0.19062757  0.33799829    -0.22400
H577        H  0.20251920  0.30451594  0.34405836     0.19400
H578        H  0.29203575  0.19818424  0.32001831     0.18200
H579        H  0.38620420  0.30232814  0.32185992     0.14500
H580        H  0.10823912  0.19958133  0.34304332     0.14300
H581        H  0.30581815  0.38887309  0.34184903     0.32500
H582        H  0.18941567  0.11397006  0.32261975     0.35200
C583        C  0.99932275  0.97745214  0.13878867     0.20800
C584        C  0.99691983  0.94948618  0.16555369    -0.39000
C585        C  0.99858631  0.97490317  0.19328271     0.19800
C586        C  0.00146056  0.02396161  0.19422584     0.22500
C587        C  0.00469260  0.05227391  0.16747715    -0.39500
C588        C  0.00388993  0.02725195  0.13977258     0.21300
N589        N  0.99775072  0.96167241  0.10960745    -0.32800
C590        C  0.00210012  0.00204472  0.09196062    -0.10400
C591        C  0.00629061  0.04378107  0.10989415    -0.29200
N592        N  0.00095893  0.03888912  0.22336558    -0.45800
C593        C  0.99858728  0.99944995  0.24107516    -0.05100
C594        C  0.99734472  0.95895703  0.22320710    -0.22400
H595        H  0.99389294  0.91079830  0.16483636     0.19400
H596        H  0.00750926  0.09086785  0.16818652     0.18200
H597        H  0.00961576  0.08070631  0.10209292     0.14500
H598        H  0.99509679  0.92253105  0.23106424     0.14300
H599        H  0.99420399  0.92582790  0.10213930     0.32500
H600        H  0.00276525  0.07398380  0.23078587     0.35200
loop_ 
_geom_bond_atom_site_label_1 
_geom_bond_atom_site_label_2 
_geom_bond_distance 
_geom_bond_site_symmetry_2 
_ccdc_geom_bond_type 
O1            V9   1.900   1_565  S
O1           C11   1.265       .  A
O2            V9   1.901   1_455  S
O2           C12   1.265       .  A
O3            V9   1.902       .  S
O3           C13   1.265       .  A
O4            V9   1.905       .  S
O4           C14   1.265       .  A
O5           V10   1.896       .  S
O5           C14   1.263   1_465  A
O6           V10   1.898       .  S
O6           C13   1.263   1_465  A
O7           V10   1.900   1_545  S
O7           C12   1.265       .  A
O8           V10   1.901   1_655  S
O8           C11   1.264       .  A
V9           V10   2.083   1_645  T
C11         C557   1.469       .  S
C12         C575   1.470       .  S
C13         C593   1.466   1_545  S
C14         C539   1.467       .  S
O15          V23   1.900       .  S
O15          C25   1.265       .  A
O16          V23   1.900   1_655  S
O16          C26   1.264       .  A
O17          V23   1.901       .  S
O17          C27   1.264       .  A
O18          V23   1.902       .  S
O18          C28   1.264       .  A
O19          V24   1.899       .  S
O19          C28   1.263   1_655  A
O20          V24   1.897       .  S
O20          C27   1.263   1_655  A
O21          V24   1.900       .  S
O21          C26   1.264       .  A
O22          V24   1.901   1_455  S
O22          C25   1.264       .  A
V23          V24   2.085   1_455  T
C25         C503   1.470       .  S
C26         C482   1.469       .  S
C27         C518   1.465       .  S
C28         C464   1.467       .  S
O29          V37   1.899       .  S
O29          C39   1.264       .  A
O30          V37   1.900   1_565  S
O30          C40   1.264       .  A
O31          V37   1.901       .  S
O31          C41   1.264       .  A
O32          V37   1.899       .  S
O32          C42   1.264   1_545  A
O33          V38   1.900       .  S
O33          C42   1.264       .  A
O34          V38   1.898       .  S
O34          C41   1.264   1_565  A
O35          V38   1.900       .  S
O35          C40   1.264       .  A
O36          V38   1.900   1_545  S
O36          C39   1.264       .  A
V37          V38   2.089   1_545  T
C39         C485   1.468       .  S
C40         C500   1.470       .  S
C41         C431   1.467       .  S
C42         C446   1.468       .  S
O43          V51   1.899       .  S
O43          C53   1.264       .  A
O44          V51   1.902       .  S
O44          C54   1.264       .  A
O45          V51   1.898       .  S
O45          C55   1.264       .  A
O46          V51   1.901       .  S
O46          C56   1.264       .  A
O47          V52   1.898       .  S
O47          C56   1.264       .  A
O48          V52   1.901       .  S
O48          C55   1.264       .  A
O49          V52   1.898       .  S
O49          C54   1.263       .  A
O50          V52   1.901       .  S
O50          C53   1.264       .  A
V51          V52   2.089       .  T
C53         C572   1.469       .  S
C54         C554   1.469       .  S
C55         C395   1.469       .  S
C56         C410   1.469       .  S
O57          V65   1.903   1_655  S
O57          C67   1.264   1_546  A
O58          V65   1.898   1_554  S
O58          C68   1.264   1_544  A
O59          V65   1.899       .  S
O59          C69   1.263   1_445  A
O60          V65   1.898   1_554  S
O60          C70   1.264       .  A
O61          V66   1.899       .  S
O61          C70   1.263   1_665  A
O62          V66   1.900   1_556  S
O62          C69   1.263       .  A
O63          V66   1.902   1_456  S
O63          C68   1.264       .  A
O64          V66   1.898       .  S
O64          C67   1.264       .  A
V65          V66   2.087   1_446  T
C67         C341   1.470   1_565  S
C68         C359   1.469   1_556  S
C69         C377   1.463       .  S
C70         C590   1.466       .  S
O71          V79   1.900   1_455  S
O71          C81   1.264   1_556  A
O72          V79   1.899   1_554  S
O72          C82   1.264   1_554  A
O73          V79   1.898       .  S
O73          C83   1.263   1_655  A
O74          V79   1.897   1_554  S
O74          C84   1.263   1_655  A
O75          V80   1.902   1_554  S
O75          C84   1.265       .  A
O76          V80   1.902       .  S
O76          C83   1.265       .  A
O77          V80   1.900   1_655  S
O77          C82   1.263       .  A
O78          V80   1.898   1_554  S
O78          C81   1.264       .  A
V79          V80   2.088   1_655  T
C81         C302   1.469       .  S
C82         C287   1.468       .  S
C83         C323   1.467       .  S
C84         C521   1.467       .  S
O85          V93   1.900       .  S
O85          C95   1.265   1_565  A
O86          V93   1.901   1_554  S
O86          C96   1.264       .  A
O87          V93   1.901       .  S
O87          C97   1.264       .  A
O88          V93   1.900   1_554  S
O88          C98   1.263       .  A
O89          V94   1.900       .  S
O89          C98   1.264   1_545  A
O90          V94   1.899   1_556  S
O90          C97   1.264   1_545  A
O91          V94   1.897   1_556  S
O91          C96   1.264   1_546  A
O92          V94   1.900       .  S
O92          C95   1.264   1_554  A
V93          V94   2.085   1_566  T
C95         C338   1.469       .  S
C96         C356   1.468       .  S
C97         C269   1.466       .  S
C98         C449   1.465       .  S
O99         V107   1.898   1_556  S
O99         C109   1.263   1_556  A
O100        V107   1.898       .  S
O100        C110   1.264   1_554  A
O101        V107   1.900   1_556  S
O101        C111   1.264       .  A
O102        V107   1.900       .  S
O102        C112   1.264       .  A
O103        V108   1.900   1_554  S
O103        C112   1.263       .  A
O104        V108   1.899       .  S
O104        C111   1.263       .  A
O105        V108   1.900       .  S
O105        C110   1.265       .  A
O106        V108   1.902   1_554  S
O106        C109   1.265       .  A
V107        V108   2.085   1_554  T
C109        C305   1.469       .  S
C110        C284   1.468   1_556  S
C111        C248   1.466       .  S
C112        C413   1.465       .  S
O113        V121   1.901   1_565  S
O113        C123   1.264   1_455  A
O114        V121   1.902       .  S
O114        C124   1.264   1_455  A
O115        V121   1.897       .  S
O115        C125   1.263   1_445  A
O116        V121   1.900       .  S
O116        C126   1.263   1_445  A
O117        V122   1.902       .  S
O117        C126   1.265       .  A
O118        V122   1.903       .  S
O118        C125   1.264       .  A
O119        V122   1.895   1_545  S
O119        C124   1.263       .  A
O120        V122   1.899       .  S
O120        C123   1.264       .  A
V121        V122   2.089   1_445  T
C123        C212   1.470       .  S
C124        C233   1.467       .  S
C125        C374   1.470       .  S
C126        C536   1.470       .  S
O127        V135   1.902       .  S
O127        C137   1.265       .  A
O128        V135   1.899       .  S
O128        C138   1.264       .  A
O129        V135   1.900       .  S
O129        C139   1.264       .  A
O130        V135   1.900       .  S
O130        C140   1.264       .  A
O131        V136   1.900       .  S
O131        C140   1.264   1_455  A
O132        V136   1.902       .  S
O132        C139   1.264   1_455  A
O133        V136   1.897       .  S
O133        C138   1.263   1_455  A
O134        V136   1.897       .  S
O134        C137   1.264   1_455  A
V135        V136   2.087   1_655  T
C137        C215   1.469       .  S
C138        C230   1.466       .  S
C139        C320   1.469       .  S
C140        C467   1.469       .  S
O141        V149   1.901       .  S
O141        C151   1.264       .  A
O142        V149   1.899       .  S
O142        C152   1.263       .  A
O143        V149   1.899       .  S
O143        C153   1.265       .  A
O144        V149   1.900   1_565  S
O144        C154   1.264       .  A
O145        V150   1.900       .  S
O145        C154   1.264       .  A
O146        V150   1.899   1_545  S
O146        C153   1.263       .  A
O147        V150   1.900       .  S
O147        C152   1.264   1_565  A
O148        V150   1.900       .  S
O148        C151   1.264   1_565  A
V149        V150   2.087   1_545  T
C151        C266   1.469       .  S
C152        C428   1.465       .  S
C153        C194   1.469       .  S
C154        C179   1.469       .  S
O155        V163   1.902       .  S
O155        C165   1.264       .  A
O156        V163   1.898       .  S
O156        C166   1.264       .  A
O157        V163   1.902       .  S
O157        C167   1.264       .  A
O158        V163   1.900       .  S
O158        C168   1.264       .  A
O159        V164   1.900       .  S
O159        C168   1.264       .  A
O160        V164   1.900       .  S
O160        C167   1.263       .  A
O161        V164   1.901       .  S
O161        C166   1.264       .  A
O162        V164   1.897       .  S
O162        C165   1.264       .  A
V163        V164   2.085       .  T
C165        C176   1.468       .  S
C166        C197   1.469       .  S
C167        C392   1.464       .  S
C168        C251   1.467       .  S
C169        C174   1.385       .  A
C169        C170   1.404       .  A
C169        N175   1.344       .  A
C170        C171   1.403       .  A
C170        H181   1.082       .  S
C171        C180   1.379       .  A
C171        C172   1.385       .  A
C172        C173   1.401       .  A
C172        N178   1.342       .  A
C173        C174   1.401       .  A
C173        H182   1.082       .  S
C174        C177   1.375       .  A
N175        C176   1.356       .  A
N175        H185   1.044       .  S
C176        C177   1.393       .  A
C177        H183   1.082       .  S
N178        C179   1.355       .  A
N178        H186   1.044       .  S
C179        C180   1.395       .  A
C180        H184   1.082       .  S
C187        C192   1.385       .  A
C187        C188   1.405       .  A
C187        N193   1.344       .  A
C188        C189   1.404       .  A
C188        H199   1.082       .  S
C189        C198   1.380       .  A
C189        C190   1.385       .  A
C190        C191   1.401       .  A
C190        N196   1.342       .  A
C191        C192   1.400       .  A
C191        H200   1.082       .  S
C192        C195   1.376       .  A
N193        C194   1.356       .  A
N193        H203   1.044       .  S
C194        C195   1.393       .  A
C195        H201   1.082       .  S
N196        C197   1.354       .  A
N196        H204   1.044       .  S
C197        C198   1.396       .  A
C198        H202   1.082       .  S
C205        C210   1.385   1_455  A
C205        C206   1.402       .  A
C205        N211   1.343       .  A
C206        C207   1.402       .  A
C206        H217   1.082       .  S
C207        C216   1.376       .  A
C207        C208   1.385   1_455  A
C208        C209   1.404       .  A
C208        N214   1.344       .  A
C209        C210   1.403       .  A
C209        H218   1.082       .  S
C210        C213   1.378       .  A
N211        C212   1.355   1_455  A
N211        H221   1.045       .  S
C212        C213   1.395       .  A
C213        H219   1.082       .  S
N214        C215   1.356       .  A
N214        H222   1.044       .  S
C215        C216   1.394   1_655  A
C216        H220   1.082       .  S
C223        C228   1.385   1_655  A
C223        C224   1.402       .  A
C223        N229   1.342       .  A
C224        C225   1.401       .  A
C224        H235   1.082       .  S
C225        C234   1.376       .  A
C225        C226   1.385   1_655  A
C226        C227   1.403       .  A
C226        N232   1.343       .  A
C227        C228   1.402       .  A
C227        H236   1.082       .  S
C228        C231   1.377       .  A
N229        C230   1.354       .  A
N229        H239   1.044       .  S
C230        C231   1.395   1_655  A
C231        H237   1.082       .  S
N232        C233   1.355   1_455  A
N232        H240   1.044       .  S
C233        C234   1.394       .  A
C234        H238   1.082       .  S
C241        C246   1.385       .  A
C241        C242   1.404       .  A
C241        N247   1.343       .  A
C242        C243   1.403       .  A
C242        H253   1.082       .  S
C243        C252   1.378       .  A
C243        C244   1.385       .  A
C244        C245   1.402       .  A
C244        N250   1.342       .  A
C245        C246   1.401       .  A
C245        H254   1.082       .  S
C246        C249   1.377       .  A
N247        C248   1.355       .  A
N247        H257   1.044       .  S
C248        C249   1.393       .  A
C249        H255   1.082       .  S
N250        C251   1.354       .  A
N250        H258   1.044       .  S
C251        C252   1.395       .  A
C252        H256   1.082       .  S
C259        C264   1.385   1_565  A
C259        C260   1.403       .  A
C259        N265   1.343       .  A
C260        C261   1.402       .  A
C260        H271   1.082       .  S
C261        C270   1.378       .  A
C261        C262   1.385   1_565  A
C262        C263   1.404       .  A
C262        N268   1.343       .  A
C263        C264   1.403       .  A
C263        H272   1.082       .  S
C264        C267   1.379       .  A
N265        C266   1.355   1_565  A
N265        H275   1.045       .  S
C266        C267   1.395       .  A
C267        H273   1.082       .  S
N268        C269   1.355   1_545  A
N268        H276   1.045       .  S
C269        C270   1.394       .  A
C270        H274   1.082       .  S
C277        C282   1.385   1_556  A
C277        C278   1.402       .  A
C277        N283   1.342       .  A
C278        C279   1.401       .  A
C278        H289   1.082       .  S
C279        C288   1.376       .  A
C279        C280   1.385   1_556  A
C280        C281   1.404       .  A
C280        N286   1.344       .  A
C281        C282   1.403       .  A
C281        H290   1.082       .  S
C282        C285   1.378       .  A
N283        C284   1.354   1_556  A
N283        H293   1.045       .  S
C284        C285   1.395       .  A
C285        H291   1.082       .  S
N286        C287   1.356   1_554  A
N286        H294   1.045       .  S
C287        C288   1.394       .  A
C288        H292   1.082       .  S
C295        C300   1.385   1_554  A
C295        C296   1.403       .  A
C295        N301   1.343       .  A
C296        C297   1.402       .  A
C296        H307   1.082       .  S
C297        C306   1.378       .  A
C297        C298   1.385   1_554  A
C298        C299   1.403       .  A
C298        N304   1.343       .  A
C299        C300   1.402       .  A
C299        H308   1.082       .  S
C300        C303   1.377       .  A
N301        C302   1.355       .  A
N301        H311   1.044       .  S
C302        C303   1.395   1_554  A
C303        H309   1.082       .  S
N304        C305   1.355   1_556  A
N304        H312   1.045       .  S
C305        C306   1.395       .  A
C306        H310   1.082       .  S
C313        C318   1.385   1_455  A
C313        C314   1.403       .  A
C313        N319   1.343       .  A
C314        C315   1.402       .  A
C314        H325   1.082       .  S
C315        C324   1.378       .  A
C315        C316   1.385   1_455  A
C316        C317   1.404       .  A
C316        N322   1.343       .  A
C317        C318   1.403       .  A
C317        H326   1.082       .  S
C318        C321   1.379       .  A
N319        C320   1.355   1_455  A
N319        H329   1.045       .  S
C320        C321   1.395       .  A
C321        H327   1.082       .  S
N322        C323   1.355   1_655  A
N322        H330   1.045       .  S
C323        C324   1.394       .  A
C324        H328   1.082       .  S
C331        C336   1.385   1_565  A
C331        C332   1.401       .  A
C331        N337   1.342       .  A
C332        C333   1.400       .  A
C332        H343   1.082       .  S
C333        C342   1.375       .  A
C333        C334   1.385   1_565  A
C334        C335   1.405   1_556  A
C334        N340   1.345   1_556  A
C335        C336   1.405   1_554  A
C335        H344   1.082       .  S
C336        C339   1.380       .  A
N337        C338   1.354   1_565  A
N337        H347   1.045       .  S
C338        C339   1.396       .  A
C339        H345   1.082   1_556  S
N340        C341   1.356       .  A
N340        H348   1.045       .  S
C341        C342   1.393   1_544  A
C342        H346   1.082       .  S
C349        C354   1.385   1_545  A
C349        C350   1.401   1_554  A
C349        N355   1.341       .  A
C350        C351   1.400       .  A
C350        H361   1.082       .  S
C351        C360   1.375       .  A
C351        C352   1.385   1_546  A
C352        C353   1.405       .  A
C352        N358   1.344       .  A
C353        C354   1.404       .  A
C353        H362   1.082       .  S
C354        C357   1.379       .  A
N355        C356   1.354   1_545  A
N355        H365   1.045   1_554  S
C356        C357   1.396       .  A
C357        H363   1.082       .  S
N358        C359   1.356       .  A
N358        H366   1.045       .  S
C359        C360   1.393   1_564  A
C360        H364   1.082       .  S
C367        C372   1.385   1_665  A
C367        C368   1.404       .  A
C367        N373   1.344       .  A
C368        C369   1.403       .  A
C368        H379   1.082       .  S
C369        C378   1.378       .  A
C369        C370   1.385   1_665  A
C370        C371   1.402       .  A
C370        N376   1.343       .  A
C371        C372   1.401       .  A
C371        H380   1.082       .  S
C372        C375   1.376       .  A
N373        C374   1.356       .  A
N373        H383   1.045       .  S
C374        C375   1.394   1_665  A
C375        H381   1.082       .  S
N376        C377   1.353   1_445  A
N376        H384   1.045       .  S
C377        C378   1.393       .  A
C378        H382   1.082       .  S
C385        C390   1.385       .  A
C385        C386   1.404       .  A
C385        N391   1.343       .  A
C386        C387   1.403       .  A
C386        H397   1.082       .  S
C387        C396   1.379       .  A
C387        C388   1.385       .  A
C388        C389   1.403       .  A
C388        N394   1.342       .  A
C389        C390   1.402       .  A
C389        H398   1.082       .  S
C390        C393   1.378       .  A
N391        C392   1.354       .  A
N391        H401   1.044       .  S
C392        C393   1.393       .  A
C393        H399   1.082       .  S
N394        C395   1.355       .  A
N394        H402   1.044       .  S
C395        C396   1.396       .  A
C396        H400   1.082       .  S
C403        C408   1.385       .  A
C403        C404   1.401       .  A
C403        N409   1.341       .  A
C404        C405   1.400       .  A
C404        H415   1.082       .  S
C405        C414   1.376       .  A
C405        C406   1.385       .  A
C406        C407   1.405       .  A
C406        N412   1.344       .  A
C407        C408   1.405       .  A
C407        H416   1.082       .  S
C408        C411   1.381       .  A
N409        C410   1.354       .  A
N409        H419   1.045       .  S
C410        C411   1.396       .  A
C411        H417   1.082       .  S
N412        C413   1.356       .  A
N412        H420   1.045       .  S
C413        C414   1.391       .  A
C414        H418   1.082       .  S
C421        C426   1.385       .  A
C421        C422   1.402   1_545  A
C421        N427   1.342   1_545  A
C422        C423   1.401   1_565  A
C422        H433   1.082       .  S
C423        C432   1.376   1_545  A
C423        C424   1.385       .  A
C424        C425   1.404       .  A
C424        N430   1.344       .  A
C425        C426   1.403       .  A
C425        H434   1.082       .  S
C426        C429   1.379       .  A
N427        C428   1.354   1_565  A
N427        H437   1.045       .  S
C428        C429   1.394       .  A
C429        H435   1.082       .  S
N430        C431   1.355       .  A
N430        H438   1.045       .  S
C431        C432   1.393   1_545  A
C432        H436   1.082       .  S
C439        C444   1.385   1_545  A
C439        C440   1.402       .  A
C439        N445   1.342       .  A
C440        C441   1.401       .  A
C440        H451   1.082       .  S
C441        C450   1.377       .  A
C441        C442   1.385   1_545  A
C442        C443   1.404       .  A
C442        N448   1.344       .  A
C443        C444   1.403       .  A
C443        H452   1.082       .  S
C444        C447   1.379       .  A
N445        C446   1.354   1_545  A
N445        H455   1.045       .  S
C446        C447   1.395       .  A
C447        H453   1.082       .  S
N448        C449   1.355       .  A
N448        H456   1.045       .  S
C449        C450   1.393   1_565  A
C450        H454   1.082       .  S
C457        C462   1.385   1_655  A
C457        C458   1.404       .  A
C457        N463   1.343       .  A
C458        C459   1.403       .  A
C458        H469   1.082       .  S
C459        C468   1.379       .  A
C459        C460   1.385   1_655  A
C460        C461   1.402       .  A
C460        N466   1.342       .  A
C461        C462   1.401       .  A
C461        H470   1.082       .  S
C462        C465   1.378       .  A
N463        C464   1.355   1_655  A
N463        H473   1.045       .  S
C464        C465   1.393       .  A
C465        H471   1.082       .  S
N466        C467   1.354   1_455  A
N466        H474   1.045       .  S
C467        C468   1.396       .  A
C468        H472   1.082       .  S
C475        C480   1.385       .  A
C475        C476   1.402       .  A
C475        N481   1.343       .  A
C476        C477   1.402       .  A
C476        H487   1.082       .  S
C477        C486   1.377       .  A
C477        C478   1.385       .  A
C478        C479   1.403       .  A
C478        N484   1.343       .  A
C479        C480   1.402       .  A
C479        H488   1.082       .  S
C480        C483   1.377       .  A
N481        C482   1.355       .  A
N481        H491   1.044       .  S
C482        C483   1.394       .  A
C483        H489   1.082       .  S
N484        C485   1.355       .  A
N484        H492   1.044       .  S
C485        C486   1.394       .  A
C486        H490   1.082       .  S
C493        C498   1.385       .  A
C493        C494   1.403       .  A
C493        N499   1.343       .  A
C494        C495   1.402       .  A
C494        H505   1.082       .  S
C495        C504   1.377       .  A
C495        C496   1.385       .  A
C496        C497   1.404       .  A
C496        N502   1.344       .  A
C497        C498   1.403       .  A
C497        H506   1.082       .  S
C498        C501   1.379       .  A
N499        C500   1.355       .  A
N499        H509   1.044       .  S
C500        C501   1.395       .  A
C501        H507   1.082       .  S
N502        C503   1.356       .  A
N502        H510   1.044       .  S
C503        C504   1.394       .  A
C504        H508   1.082       .  S
C511        C516   1.385       .  A
C511        C512   1.403       .  A
C511        N517   1.342       .  A
C512        C513   1.401       .  A
C512        H523   1.082       .  S
C513        C522   1.378       .  A
C513        C514   1.385       .  A
C514        C515   1.403       .  A
C514        N520   1.342       .  A
C515        C516   1.402       .  A
C515        H524   1.082   1_455  S
C516        C519   1.378       .  A
N517        C518   1.354       .  A
N517        H527   1.045       .  S
C518        C519   1.394       .  A
C519        H525   1.082       .  S
N520        C521   1.355       .  A
N520        H528   1.045   1_455  S
C521        C522   1.394       .  A
C522        H526   1.082       .  S
C529        C534   1.385   1_445  A
C529        C530   1.403       .  A
C529        N535   1.344       .  A
C530        C531   1.402       .  A
C530        H541   1.082       .  S
C531        C540   1.376       .  A
C531        C532   1.385   1_445  A
C532        C533   1.404       .  A
C532        N538   1.345       .  A
C533        C534   1.403       .  A
C533        H542   1.082       .  S
C534        C537   1.378       .  A
N535        C536   1.356   1_445  A
N535        H545   1.043       .  S
C536        C537   1.394       .  A
C537        H543   1.082       .  S
N538        C539   1.355   1_565  A
N538        H546   1.044       .  S
C539        C540   1.393   1_655  A
C540        H544   1.082       .  S
C547        C552   1.385       .  A
C547        C548   1.402       .  A
C547        N553   1.342       .  A
C548        C549   1.401       .  A
C548        H559   1.082       .  S
C549        C558   1.377       .  A
C549        C550   1.385       .  A
C550        C551   1.405       .  A
C550        N556   1.344       .  A
C551        C552   1.404       .  A
C551        H560   1.082       .  S
C552        C555   1.380       .  A
N553        C554   1.354       .  A
N553        H563   1.044       .  S
C554        C555   1.396       .  A
C555        H561   1.082       .  S
N556        C557   1.356       .  A
N556        H564   1.044       .  S
C557        C558   1.394       .  A
C558        H562   1.082       .  S
C565        C570   1.385       .  A
C565        C566   1.404       .  A
C565        N571   1.344       .  A
C566        C567   1.404       .  A
C566        H577   1.082       .  S
C567        C576   1.379       .  A
C567        C568   1.385       .  A
C568        C569   1.402       .  A
C568        N574   1.343       .  A
C569        C570   1.401       .  A
C569        H578   1.082       .  S
C570        C573   1.377       .  A
N571        C572   1.356       .  A
N571        H581   1.044       .  S
C572        C573   1.394       .  A
C573        H579   1.082       .  S
N574        C575   1.355       .  A
N574        H582   1.044       .  S
C575        C576   1.396       .  A
C576        H580   1.082       .  S
C583        C588   1.385   1_665  A
C583        C584   1.403       .  A
C583        N589   1.343       .  A
C584        C585   1.402       .  A
C584        H595   1.082       .  S
C585        C594   1.377       .  A
C585        C586   1.385   1_665  A
C586        C587   1.402       .  A
C586        N592   1.343       .  A
C587        C588   1.401       .  A
C587        H596   1.082       .  S
C588        C591   1.377       .  A
N589        C590   1.355   1_665  A
N589        H599   1.045       .  S
C590        C591   1.394       .  A
C591        H597   1.082       .  S
N592        C593   1.354   1_445  A
N592        H600   1.045       .  S
C593        C594   1.394       .  A
C594        H598   1.082       .  S
