geometry optimzed in LAMMPS
_audit_creation_date              2020-11-30 
_audit_creation_method            'lammps2cif' 
_symmetry_space_group_name_H-M    'P1' 
_symmetry_Int_Tables_number       1 
_symmetry_cell_setting            triclinic 
loop_ 
_symmetry_equiv_pos_as_xyz 
  x,y,z 
_cell_length_a                    43.42848129 
_cell_length_b                    43.42211093898779 
_cell_length_c                    32.594889980063094 
_cell_angle_alpha                 91.02077768408436 
_cell_angle_beta                  89.61425895768163 
_cell_angle_gamma                 120.02630085573487 
loop_ 
_atom_site_label 
_atom_site_type_symbol 
_atom_site_fract_x 
_atom_site_fract_y 
_atom_site_fract_z 
_atom_site_charge 
O1          O  0.47388413  0.44142885  0.33430170    -0.75100
O2          O  0.06407989  0.02656566  0.32911116    -0.75100
O3          O  0.01680091  0.48744766  0.39344466    -0.75200
O4          O  0.01838684  0.48522000  0.27620240    -0.75200
O5          O  0.49083527  0.00977325  0.26798831    -0.75100
O6          O  0.48940288  0.01151227  0.38528630    -0.75100
O7          O  0.03342724  0.05513051  0.32726308    -0.75100
O8          O  0.44309588  0.46985435  0.33279242    -0.75200
Ni9        Ni  0.01856509  0.48527171  0.33490321     1.25400
Ni10       Ni  0.48914401  0.01170479  0.32657339     1.25400
C11         C  0.44416054  0.44092060  0.33297189     0.87100
C12         C  0.06305136  0.05552805  0.32910161     0.87000
C13         C  0.50104805  0.50178554  0.41205483     0.87100
C14         C  0.00274699  0.49858798  0.25618825     0.87200
O15         O  0.46479796  0.18980670  0.33383493    -0.75100
O16         O  0.05291630  0.27833165  0.33390845    -0.75100
O17         O  0.00980675  0.23346056  0.39263662    -0.75200
O18         O  0.00823136  0.23413819  0.27522971    -0.75200
O19         O  0.47727383  0.26252994  0.27755568    -0.75100
O20         O  0.48115857  0.26402372  0.39534965    -0.75100
O21         O  0.02289025  0.30742017  0.33534128    -0.75100
O22         O  0.43527273  0.21952043  0.33762824    -0.75200
Ni23       Ni  0.00998793  0.23285956  0.33385617     1.25400
Ni24       Ni  0.47810086  0.26442095  0.33655824     1.25400
C25         C  0.43548864  0.19018654  0.33576190     0.87100
C26         C  0.05241925  0.30764527  0.33411313     0.87000
C27         C  0.99592047  0.24873151  0.41337061     0.87100
C28         C  0.99256123  0.24843950  0.25717220     0.87200
O29         O  0.27189207  0.05996847  0.34193120    -0.75100
O30         O  0.18875777  0.46904476  0.32966969    -0.75100
O31         O  0.22491878  0.01378777  0.39676481    -0.75200
O32         O  0.23075152  0.01846772  0.27924234    -0.75200
O33         O  0.26351377  0.48386250  0.27378853    -0.75100
O34         O  0.26071900  0.47959846  0.39057238    -0.75100
O35         O  0.21703224  0.43816520  0.32925484    -0.75100
O36         O  0.30112589  0.02990103  0.34083195    -0.75200
Ni37       Ni  0.22670136  0.01716325  0.33796983     1.25400
Ni38       Ni  0.26283974  0.48039895  0.33210005     1.25400
C39         C  0.30106082  0.05933175  0.34231431     0.87100
C40         C  0.18808771  0.43920171  0.32812986     0.87000
C41         C  0.23953677  0.99873921  0.41562011     0.87100
C42         C  0.24654807  0.00442898  0.25981613     0.87200
O43         O  0.26697005  0.23654640  0.27175746    -0.75100
O44         O  0.26943140  0.23285135  0.38933023    -0.75100
O45         O  0.22509860  0.19001159  0.32939339    -0.75200
O46         O  0.31162028  0.27909980  0.33178618    -0.75200
O47         O  0.28088304  0.30749541  0.33608737    -0.75100
O48         O  0.19405839  0.21806645  0.33434947    -0.75100
O49         O  0.23861581  0.26109712  0.39380143    -0.75100
O50         O  0.23539120  0.26417158  0.27684429    -0.75200
Ni51       Ni  0.26940609  0.23364067  0.33037110     1.25400
Ni52       Ni  0.23621288  0.26378541  0.33549024     1.25400
C53         C  0.25022441  0.25045203  0.25509328     0.87100
C54         C  0.25401059  0.24608423  0.41103791     0.87000
C55         C  0.19529912  0.18925823  0.33095871     0.87100
C56         C  0.31064770  0.30802810  0.33462047     0.87200
O57         O  0.03613314  0.47218235  0.00075525    -0.75100
O58         O  0.44662183  0.46988005  0.00065949    -0.75100
O59         O  0.49201225  0.47184759  0.94194971    -0.75200
O60         O  0.49032717  0.46947554  0.05917194    -0.75200
O61         O  0.02464103  0.02916536  0.05477984    -0.75100
O62         O  0.01741827  0.03069690  0.93772234    -0.75100
O63         O  0.47774710  0.03129086  0.00203497    -0.75100
O64         O  0.06442876  0.02866872  0.99066593    -0.75200
Ni65       Ni  0.49023465  0.46867318  0.00048310     1.25400
Ni66       Ni  0.02221092  0.03212174  0.99630338     1.25400
C67         C  0.06511125  0.50231081  0.00144033     0.87100
C68         C  0.44651773  0.49933377  0.00322799     0.87000
C69         C  0.50599370  0.50173162  0.92367501     0.87100
C70         C  0.50541820  0.49874080  0.07974330     0.87200
O71         O  0.05059734  0.28055421  0.00242841    -0.75100
O72         O  0.46239053  0.28030032  0.00399926    -0.75100
O73         O  0.00621844  0.27891542  0.06219679    -0.75200
O74         O  0.00702842  0.28206220  0.94476333    -0.75200
O75         O  0.47646859  0.22266521  0.94163774    -0.75100
O76         O  0.47682367  0.21965778  0.05908490    -0.75100
O77         O  0.43276676  0.22097854  0.00167047    -0.75100
O78         O  0.02091586  0.22127970  0.99857880    -0.75200
Ni79       Ni  0.00758547  0.28256616  0.00356804     1.25400
Ni80       Ni  0.47572825  0.21902836  0.00018983     1.25400
C81         C  0.05026849  0.25093354  0.99953131     0.87100
C82         C  0.43307125  0.25060632  0.00232439     0.87000
C83         C  0.99122723  0.24879137  0.08002965     0.87100
C84         C  0.99182035  0.25286481  0.92398518     0.87200
O85         O  0.22638478  0.03162454  0.00161906    -0.75100
O86         O  0.31555375  0.03321481  0.00552830    -0.75100
O87         O  0.27171740  0.03049756  0.94504467    -0.75200
O88         O  0.27021231  0.03435856  0.06259832    -0.75200
O89         O  0.24362439  0.47375934  0.05889403    -0.75100
O90         O  0.23985496  0.47130594  0.94162386    -0.75100
O91         O  0.28538212  0.47199308  0.99811869    -0.75100
O92         O  0.19790423  0.47271321  0.00259225    -0.75200
Ni93       Ni  0.27199694  0.03457925  0.00372271     1.25400
Ni94       Ni  0.24061775  0.47034762  0.00030483     1.25400
C95         C  0.19729762  0.00169774  0.00250013     0.87100
C96         C  0.31553437  0.00367753  0.00502377     0.87000
C97         C  0.25719725  0.00021618  0.92642785     0.87100
C98         C  0.25631481  0.00526455  0.08252440     0.87200
O99         O  0.21287152  0.28013575  0.00120790    -0.75100
O100        O  0.29990043  0.27826913  0.99956635    -0.75100
O101        O  0.25553238  0.27774568  0.94159511    -0.75200
O102        O  0.25790548  0.28076517  0.05901589    -0.75200
O103        O  0.22601078  0.22146895  0.05966306    -0.75100
O104        O  0.22618807  0.21854699  0.94194538    -0.75100
O105        O  0.26942128  0.21903964  0.00150086    -0.75100
O106        O  0.18222272  0.22084152  0.00019510    -0.75200
Ni107      Ni  0.25751842  0.28131978  0.00026770     1.25400
Ni108      Ni  0.22475284  0.21783376  0.00083787     1.25400
C109        C  0.18319319  0.25082397  0.00106393     0.87100
C110        C  0.29904475  0.24840099  0.00112167     0.87000
C111        C  0.24179513  0.24781008  0.92232064     0.87100
C112        C  0.24291616  0.25154210  0.07860838     0.87200
O113        O  0.02628466  0.46751016  0.66732932    -0.75100
O114        O  0.02372464  0.05513596  0.66188726    -0.75100
O115        O  0.02366800  0.01205802  0.72045886    -0.75200
O116        O  0.02522548  0.01107631  0.60325760    -0.75200
O117        O  0.46729813  0.48279506  0.60982735    -0.75100
O118        O  0.46984990  0.48499377  0.72735453    -0.75100
O119        O  0.46447499  0.02492027  0.66133434    -0.75100
O120        O  0.46707599  0.43913538  0.66841177    -0.75200
Ni121      Ni  0.02648647  0.01257005  0.66196593     1.25400
Ni122      Ni  0.46640593  0.48285153  0.66861755     1.25400
C123        C  0.49629150  0.43861516  0.66830915     0.87100
C124        C  0.49396542  0.05446790  0.66166622     0.87000
C125        C  0.49379602  0.99647556  0.73945251     0.87100
C126        C  0.99593569  0.99628087  0.58308582     0.87200
O127        O  0.02212723  0.21619646  0.67140634    -0.75100
O128        O  0.02206678  0.30403301  0.66697676    -0.75100
O129        O  0.02033388  0.26206445  0.72790379    -0.75200
O130        O  0.02376356  0.25877044  0.61051060    -0.75200
O131        O  0.46460475  0.22847665  0.60799043    -0.75100
O132        O  0.46141953  0.23225287  0.72540253    -0.75100
O133        O  0.46297748  0.27432342  0.66434292    -0.75100
O134        O  0.46300991  0.18633064  0.66918429    -0.75200
Ni135      Ni  0.02417731  0.26122997  0.66930030     1.25400
Ni136      Ni  0.46088644  0.22924091  0.66664686     1.25400
C137        C  0.49268150  0.18679904  0.67099984     0.87100
C138        C  0.49260067  0.30372609  0.66481885     0.87000
C139        C  0.49031464  0.24830484  0.74617569     0.87100
C140        C  0.49484378  0.24350430  0.59001153     0.87200
O141        O  0.22001498  0.02448896  0.67443926    -0.75100
O142        O  0.22371416  0.43763706  0.66492598    -0.75100
O143        O  0.22180010  0.48082156  0.72463047    -0.75200
O144        O  0.22278932  0.48115026  0.60735360    -0.75200
O145        O  0.27732317  0.01123996  0.61159784    -0.75100
O146        O  0.28059111  0.00847813  0.72850354    -0.75100
O147        O  0.28292340  0.46847674  0.66480056    -0.75100
O148        O  0.27931242  0.05390945  0.67368423    -0.75200
Ni149      Ni  0.22021347  0.47989040  0.66591904     1.25400
Ni150      Ni  0.28098961  0.01073786  0.66994509     1.25400
C151        C  0.24973889  0.05372437  0.67482737     0.87100
C152        C  0.25373251  0.43867254  0.66428008     0.87000
C153        C  0.25155073  0.99382875  0.74894293     0.87100
C154        C  0.24741945  0.99671962  0.59284329     0.87200
O155        O  0.22065904  0.18658997  0.66450384    -0.75100
O156        O  0.22246734  0.27552001  0.66551622    -0.75100
O157        O  0.22374635  0.23178208  0.60621823    -0.75200
O158        O  0.21911634  0.23013962  0.72359480    -0.75200
O159        O  0.27833984  0.25938916  0.72681874    -0.75100
O160        O  0.28305712  0.26002311  0.60927298    -0.75100
O161        O  0.28167974  0.30439455  0.66824692    -0.75100
O162        O  0.27986641  0.21543430  0.66819145    -0.75200
Ni163      Ni  0.21939508  0.22999470  0.66479554     1.25400
Ni164      Ni  0.28286108  0.26086257  0.66820618     1.25400
C165        C  0.24999225  0.18636906  0.66631395     0.87100
C166        C  0.25230188  0.30463126  0.66759288     0.87000
C167        C  0.25409544  0.24606955  0.58853293     0.87100
C168        C  0.24794964  0.24422552  0.74457765     0.87200
C169        C  0.25423347  0.40477068  0.66421199    -0.06800
C170        C  0.22606991  0.37544860  0.68348748    -0.17900
C171        C  0.22533865  0.34302675  0.68632557     0.10400
C172        C  0.25295969  0.33905465  0.66849559    -0.06700
C173        C  0.28139291  0.36845133  0.64962058    -0.17900
C174        C  0.28214847  0.40095856  0.64683659     0.10500
S175        S  0.18936365  0.30859619  0.71515224    -0.32900
S176        S  0.31817938  0.43550222  0.61831997    -0.32900
H177        H  0.29578363  0.44449585  0.59707947     0.28500
H178        H  0.21084416  0.29749759  0.73480231     0.28500
H179        H  0.20483151  0.37806163  0.69768290     0.19100
H180        H  0.30258967  0.36573042  0.63548564     0.19100
C181        C  0.24960892  0.15222929  0.66747101    -0.06800
C182        C  0.27541188  0.15039795  0.69141161    -0.17900
C183        C  0.27548128  0.11846434  0.69564036     0.10400
C184        C  0.24957635  0.08757026  0.67479003    -0.06700
C185        C  0.22364219  0.08932175  0.65108907    -0.17900
C186        C  0.22364489  0.12125714  0.64671419     0.10500
S187        S  0.30819235  0.11863513  0.72961143    -0.32900
S188        S  0.19119497  0.12098220  0.61223350    -0.32900
H189        H  0.21474022  0.15419285  0.59512865     0.28500
H190        H  0.28544512  0.08456029  0.74520998     0.28500
H191        H  0.29511332  0.17382492  0.70800394     0.19100
H192        H  0.20401126  0.06589692  0.63442023     0.19100
C193        C  0.49302648  0.33796913  0.66437588    -0.06800
C194        C  0.01998342  0.36682550  0.68644947    -0.17900
C195        C  0.02104473  0.39946360  0.68949048     0.10400
C196        C  0.49515763  0.40406306  0.66887384    -0.06700
C197        C  0.46790301  0.37512614  0.64715272    -0.17900
C198        C  0.46676421  0.34238385  0.64425564     0.10500
S199        S  0.05492392  0.43330393  0.72206616    -0.32900
S200        S  0.43232179  0.30818770  0.61258588    -0.32900
H201        H  0.45453914  0.29665289  0.59485954     0.28500
H202        H  0.03264860  0.44518271  0.73878014     0.28500
H203        H  0.03988307  0.36363084  0.70268972     0.19100
H204        H  0.44798119  0.37838579  0.63106218     0.19100
C205        C  0.49306966  0.15296808  0.67082128    -0.06800
C206        C  0.01971123  0.15118631  0.64832892    -0.17900
C207        C  0.01999060  0.11929588  0.64354353     0.10400
C208        C  0.49356532  0.08830186  0.66278625    -0.06700
C209        C  0.46683079  0.09005256  0.68543223    -0.17900
C210        C  0.46651368  0.12199950  0.69007278     0.10500
S211        S  0.05364099  0.11966124  0.61048832    -0.32900
S212        S  0.43267622  0.12177668  0.72267803    -0.32900
H213        H  0.45483123  0.15590694  0.73970737     0.28500
H214        H  0.03090455  0.08618167  0.59226937     0.28500
H215        H  0.03983760  0.17458900  0.63283726     0.19100
H216        H  0.44666340  0.06661383  0.70082693     0.19100
C217        C  0.24430112  0.24693043  0.87684251    -0.06800
C218        C  0.21858978  0.21692702  0.85487530    -0.17900
C219        C  0.21973939  0.21469433  0.81199187     0.10400
C220        C  0.24638015  0.24368732  0.78997213    -0.06700
C221        C  0.27240178  0.27332169  0.81187474    -0.17900
C222        C  0.27216948  0.27496477  0.85473847     0.10500
S223        S  0.18770336  0.17339621  0.78756066    -0.32900
S224        S  0.30949438  0.31269681  0.87899600    -0.32900
H225        H  0.31456989  0.29212386  0.90816986     0.28500
H226        H  0.21173274  0.17318419  0.75851044     0.28500
H227        H  0.19761600  0.19476044  0.87122313     0.19100
H228        H  0.29343214  0.29539119  0.79544441     0.19100
C229        C  0.25323668  0.99372254  0.79433896    -0.06800
C230        C  0.28289404  0.02171255  0.81431900    -0.17900
C231        C  0.28559652  0.02396057  0.85713843     0.10400
C232        C  0.25741955  0.99829704  0.88106655    -0.06700
C233        C  0.22520316  0.47159967  0.85629089    -0.17900
C234        C  0.22355910  0.46902249  0.81340139     0.10500
S235        S  0.32628870  0.05941365  0.87895541    -0.32900
S236        S  0.18606558  0.43017334  0.79105038    -0.32900
H237        H  0.20661703  0.42386364  0.76217651     0.28500
H238        H  0.32857139  0.03865510  0.91013426     0.28500
H239        H  0.30428844  0.04211359  0.79644493     0.19100
H240        H  0.20355397  0.45120855  0.87389461     0.19100
C241        C  0.39893664  0.25022175  0.00111230    -0.06800
C242        C  0.36989887  0.22365794  0.02253756    -0.17900
C243        C  0.33718919  0.22257825  0.02374711     0.10400
C244        C  0.33295158  0.24825009  0.00222054    -0.06700
C245        C  0.36197571  0.27465595  0.98057025    -0.17900
C246        C  0.39457890  0.27558151  0.97921125     0.10500
S247        S  0.30278637  0.18872375  0.05483781    -0.32900
S248        S  0.42864540  0.30833435  0.94682796    -0.34100
H249        H  0.44004614  0.28525772  0.93128997     0.28500
H250        H  0.29052132  0.21078692  0.07120113     0.28500
H251        H  0.37295893  0.20408448  0.03943102     0.19100
H252        H  0.35894843  0.29413560  0.96342770     0.19100
C253        C  0.08436835  0.25113763  0.99814243    -0.06800
C254        C  0.11262803  0.27635735  0.02245117    -0.17900
C255        C  0.14506522  0.27674606  0.02436150     0.10400
C256        C  0.14948991  0.25144690  0.00111536    -0.06700
C257        C  0.12124163  0.22626382  0.97678406    -0.17900
C258        C  0.08909199  0.22622588  0.97443930     0.10500
S259        S  0.17955588  0.30810271  0.05862511    -0.32900
S260        S  0.05603984  0.19497785  0.93899356    -0.32900
H261        H  0.04493791  0.21857787  0.92581187     0.28500
H262        H  0.16127463  0.32507474  0.07358349     0.28500
H263        H  0.10887788  0.29521453  0.04087529     0.19100
H264        H  0.12463456  0.20712847  0.95839140     0.19100
C265        C  0.49175490  0.25368160  0.87879591    -0.06800
C266        C  0.95911962  0.23628205  0.85815286    -0.17900
C267        C  0.95743917  0.23556521  0.81526041     0.10400
C268        C  0.48945747  0.25102311  0.79190823    -0.06700
C269        C  0.52212598  0.26901134  0.81323796    -0.17900
C270        C  0.52356111  0.27083023  0.85625362     0.10500
S271        S  0.91358387  0.21497325  0.79297004    -0.32900
S272        S  0.56612469  0.29337726  0.88217950    -0.32900
H273        H  0.58740718  0.30483084  0.84679049     0.28500
H274        H  0.92125176  0.24502328  0.76975348     0.28500
H275        H  0.93464097  0.22367139  0.87565702     0.19100
H276        H  0.54679618  0.28139600  0.79623611     0.19100
C277        C  0.41244040  0.49918620  0.00363308    -0.06800
C278        C  0.38449929  0.47427438  0.97873001    -0.17900
C279        C  0.35288394  0.47515529  0.97481987     0.10400
C280        C  0.34960425  0.00377337  0.00322272    -0.06700
C281        C  0.37752390  0.02673272  0.02950604    -0.17900
C282        C  0.40951186  0.02612252  0.03052341     0.10500
S283        S  0.32000580  0.44390460  0.93922764    -0.32900
S284        S  0.44227478  0.05414798  0.06821112    -0.32900
H285        H  0.45343786  0.02963452  0.07706170     0.28500
H286        H  0.30940491  0.46766905  0.92519379     0.28500
H287        H  0.38782240  0.45482424  0.96090863     0.19100
H288        H  0.37392425  0.04436687  0.05041166     0.19100
C289        C  0.09977021  0.50346566  0.00279380    -0.06800
C290        C  0.10115719  0.47496211  0.02060880    -0.17900
C291        C  0.13313433  0.47469359  0.02353503     0.10400
C292        C  0.16297109  0.00087023  0.00025901    -0.06700
C293        C  0.15780112  0.01946485  0.96879986    -0.17900
C294        C  0.12498895  0.01771617  0.96350957     0.10500
S295        S  0.13234480  0.43894859  0.05174702    -0.32900
S296        S  0.12007721  0.03986356  0.92000592    -0.32900
H297        H  0.08411310  0.01445486  0.91296093     0.28500
H298        H  0.16513875  0.46077043  0.07154267     0.28500
H299        H  0.07732947  0.45318424  0.03364996     0.19100
H300        H  0.17913939  0.03455208  0.94738252     0.19100
C301        C  0.50558300  0.50185855  0.87807569    -0.06800
C302        C  0.47884319  0.47170694  0.85729696    -0.17900
C303        C  0.47674002  0.46983570  0.81444546     0.10400
C304        C  0.50120379  0.49923177  0.79124256    -0.06700
C305        C  0.01827967  0.02918020  0.80465470    -0.17900
C306        C  0.02151146  0.03173087  0.84738493     0.10500
S307        S  0.44340507  0.42845484  0.79138942    -0.32900
S308        S  0.05399515  0.07449833  0.86824509    -0.32900
H309        H  0.07028214  0.06065428  0.89300297     0.28500
H310        H  0.46565403  0.42835538  0.75986347     0.28500
H311        H  0.45949639  0.44907624  0.87453865     0.19100
H312        H  0.03497262  0.05249668  0.78665147     0.19100
C313        C  0.25555798  0.24705344  0.54348896    -0.06800
C314        C  0.26086114  0.22193862  0.52180151    -0.17900
C315        C  0.25952988  0.22010001  0.47876866     0.10400
C316        C  0.25417844  0.24493048  0.45666265    -0.06700
C317        C  0.24881465  0.26995315  0.47889953    -0.17900
C318        C  0.24937826  0.27118088  0.52177063     0.10500
S319        S  0.26235661  0.18396404  0.45452771    -0.32900
S320        S  0.24186380  0.30407310  0.54716002    -0.32900
H321        H  0.26605275  0.31119466  0.57928414     0.28500
H322        H  0.23380850  0.17484692  0.42747636     0.28500
H323        H  0.26469355  0.20277430  0.53854693     0.19100
H324        H  0.24453539  0.28912434  0.46285208     0.19100
C325        C  0.24545616  0.25229901  0.12372163    -0.06800
C326        C  0.21402200  0.23378196  0.14637092    -0.17900
C327        C  0.21474171  0.23293423  0.18923135     0.10400
C328        C  0.24774911  0.25048259  0.21009106    -0.06700
C329        C  0.27918076  0.26915615  0.18752283    -0.17900
C330        C  0.27843335  0.27049933  0.14468431     0.10500
S331        S  0.17262635  0.20877549  0.21520693    -0.32900
S332        S  0.32053818  0.29539342  0.11887803    -0.32900
H333        H  0.31132285  0.27270471  0.08443490     0.28500
H334        H  0.18526406  0.19764515  0.24787724     0.28500
H335        H  0.18865971  0.21998269  0.13051635     0.19100
H336        H  0.30451212  0.28295993  0.20344570     0.19100
C337        C  0.24041894  0.99882986  0.46078829    -0.06800
C338        C  0.27302039  0.00842208  0.47938733    -0.17900
C339        C  0.27646615  0.00846669  0.52190056     0.10400
C340        C  0.24622695  0.99818334  0.54726828    -0.06700
C341        C  0.21865739  0.48268503  0.52248921    -0.17900
C342        C  0.21572091  0.48097805  0.47973476     0.10500
S343        S  0.32053897  0.02239363  0.54069702    -0.32900
S344        S  0.17171844  0.46097963  0.45770796    -0.32900
H345        H  0.17901367  0.44554759  0.42343843     0.28500
H346        H  0.30957439  0.99165440  0.56357489     0.28500
H347        H  0.29630201  0.01613758  0.46042614     0.19100
H348        H  0.19446684  0.47263011  0.54030336     0.19100
C349        C  0.25619270  0.00630976  0.12790500    -0.06800
C350        C  0.25539078  0.53044302  0.14443356    -0.17900
C351        C  0.25260145  0.53045250  0.18738222     0.10400
C352        C  0.24972681  0.00627289  0.21440009    -0.06700
C353        C  0.25501813  0.98058543  0.19380375    -0.17900
C354        C  0.25900171  0.98075619  0.15130019     0.10500
S355        S  0.24872179  0.56586372  0.21244863    -0.32900
S356        S  0.26942372  0.94867072  0.12921274    -0.32900
H357        H  0.29369362  0.97217878  0.10035149     0.28500
H358        H  0.24106608  0.57891587  0.17705912     0.28500
H359        H  0.25359313  0.55051367  0.12706145     0.19100
H360        H  0.25653016  0.96024440  0.21099260     0.19100
C361        C  0.49622592  0.24432297  0.54497942    -0.06800
C362        C  0.00479072  0.27625472  0.52602910    -0.17900
C363        C  0.00557002  0.27868950  0.48324657     0.10400
C364        C  0.49702550  0.24832785  0.45861327    -0.06700
C365        C  0.48875057  0.21634818  0.47781883    -0.17900
C366        C  0.48837395  0.21405895  0.52067182     0.10500
S367        S  0.01924425  0.32169199  0.46201357    -0.32900
S368        S  0.47769728  0.17194139  0.54244371    -0.32900
H369        H  0.49853367  0.18614539  0.57801858     0.28500
H370        H  0.03862639  0.31810779  0.42935112     0.28500
H371        H  0.01119929  0.29962850  0.54470829     0.19100
H372        H  0.48222836  0.19287562  0.45929831     0.19100
C373        C  0.40122940  0.15651440  0.33665900    -0.06800
C374        C  0.37366802  0.15509565  0.36090392    -0.17900
C375        C  0.34099458  0.12365436  0.36433742     0.10400
C376        C  0.33539306  0.09284022  0.34258859    -0.06700
C377        C  0.36293698  0.09427160  0.31840044    -0.17900
C378        C  0.39540448  0.12577184  0.31458499     0.10500
S379        S  0.30832819  0.12433739  0.39824318    -0.32900
S380        S  0.42712765  0.12546787  0.27884706    -0.32900
H381        H  0.43780219  0.15938964  0.26331325     0.28500
H382        H  0.29597325  0.08994491  0.41333601     0.28500
H383        H  0.37790246  0.17846281  0.37818568     0.19100
H384        H  0.35862361  0.07098781  0.30086318     0.19100
C385        C  0.15324768  0.40562857  0.32652894    -0.06800
C386        C  0.12311163  0.40618333  0.34148775    -0.17900
C387        C  0.08991431  0.37516621  0.34356192     0.10400
C388        C  0.08645961  0.34200240  0.33165038    -0.06700
C389        C  0.11649587  0.34159396  0.31600250    -0.17900
C390        C  0.14932921  0.37285684  0.31228297     0.10500
S391        S  0.05367266  0.38000244  0.36319774    -0.32900
S392        S  0.18438254  0.36901349  0.28713577    -0.32900
H393        H  0.19606194  0.39991129  0.26386512     0.28500
H394        H  0.03580919  0.37084555  0.32517380     0.28500
H395        H  0.12541088  0.43100752  0.35226389     0.19100
H396        H  0.11422339  0.31676250  0.30531216     0.19100
C397        C  0.99079055  0.24798885  0.12541441    -0.06800
C398        C  0.02186651  0.27191500  0.14686197    -0.17900
C399        C  0.02299211  0.27270674  0.18979850     0.10400
C400        C  0.99248725  0.24901109  0.21206584    -0.06700
C401        C  0.46145168  0.22501209  0.19077117    -0.17900
C402        C  0.46018140  0.22439930  0.14779686     0.10500
S403        S  0.06400032  0.30458672  0.21452234    -0.32900
S404        S  0.41831734  0.19399264  0.12364315    -0.32900
H405        H  0.42091517  0.21803030  0.09360526     0.28500
H406        H  0.04763346  0.31269830  0.24695051     0.28500
H407        H  0.04548883  0.29014533  0.13003374     0.19100
H408        H  0.43795772  0.20682341  0.20782315     0.19100
C409        C  0.50063377  0.50242611  0.45724537    -0.06800
C410        C  0.46841142  0.49225827  0.47735766    -0.17900
C411        C  0.46565543  0.48914413  0.52008850     0.10400
C412        C  0.49731432  0.99661911  0.53750802    -0.06700
C413        C  0.02791234  0.00038239  0.51805878    -0.17900
C414        C  0.03140892  0.00175148  0.47533961     0.10500
S415        S  0.42235814  0.47475092  0.54167726    -0.32900
S416        S  0.07340394  0.01005797  0.45444889    -0.32900
H417        H  0.07478319  0.03341425  0.42414732     0.28500
H418        H  0.41985292  0.44384337  0.55820781     0.28500
H419        H  0.44483898  0.48553584  0.45948352     0.19100
H420        H  0.04976441  0.00275939  0.53635367     0.19100
C421        C  0.41033897  0.40668824  0.33237079    -0.06800
C422        C  0.38081785  0.40522433  0.35215782    -0.17900
C423        C  0.34835994  0.37345386  0.35448217     0.10400
C424        C  0.34461287  0.34226333  0.33535484    -0.06700
C425        C  0.37418602  0.34375552  0.31556063    -0.17900
C426        C  0.40674787  0.37545958  0.31355651     0.10500
S427        S  0.31375077  0.37432446  0.38444936    -0.32900
S428        S  0.44186951  0.37430378  0.28493855    -0.32900
H429        H  0.45373680  0.40719711  0.26599358     0.28500
H430        H  0.30358810  0.34200330  0.40407881     0.28500
H431        H  0.38336490  0.42882912  0.36728109     0.19100
H432        H  0.37172015  0.32018066  0.30045838     0.19100
C433        C  0.09668070  0.08979042  0.33068370    -0.06800
C434        C  0.12652964  0.09202782  0.31098320    -0.17900
C435        C  0.15877142  0.12406768  0.30963022     0.10400
C436        C  0.16171627  0.15480339  0.32927787    -0.06700
C437        C  0.13178746  0.15247551  0.34899680    -0.17900
C438        C  0.09962694  0.12038614  0.35046052     0.10500
S439        S  0.19425617  0.12377170  0.28083282    -0.32900
S440        S  0.06425153  0.11996571  0.38020146    -0.32900
H441        H  0.05353621  0.08682968  0.39805958     0.28500
H442        H  0.20513435  0.15632937  0.26156739     0.28500
H443        H  0.12446498  0.06880109  0.29539497     0.19100
H444        H  0.13373396  0.17559817  0.36470712     0.19100
C445        C  0.50262577  0.49685170  0.21100852    -0.06800
C446        C  0.03947094  0.01100486  0.18369074    -0.17900
C447        C  0.04110911  0.01283183  0.14080539     0.10400
C448        C  0.50524475  0.49758742  0.12470255    -0.06700
C449        C  0.47267514  0.48455198  0.14506381    -0.17900
C450        C  0.47098047  0.48386884  0.18790991     0.10500
S451        S  0.08451059  0.03381098  0.11735248    -0.32900
S452        S  0.42760984  0.46530377  0.21112356    -0.32900
H453        H  0.43518657  0.44994479  0.24429859     0.28500
H454        H  0.07400308  0.01269784  0.08142462     0.28500
H455        H  0.06395644  0.02271640  0.20129577     0.19100
H456        H  0.44840182  0.47496800  0.12742435     0.19100
O457        O  0.47721135  0.93744043  0.32685804    -0.75100
O458        O  0.06071290  0.53092146  0.33525849    -0.75100
O459        O  0.01944572  0.98256872  0.38663609    -0.75200
O460        O  0.02197323  0.98180883  0.26900197    -0.75200
O461        O  0.48710012  0.51318127  0.27463717    -0.75100
O462        O  0.48545850  0.51531471  0.39216673    -0.75100
O463        O  0.02980955  0.55928742  0.33403428    -0.75100
O464        O  0.44688111  0.96631747  0.32598124    -0.75200
Ni465      Ni  0.02173599  0.98104400  0.32788260     1.25400
Ni466      Ni  0.48527576  0.51542462  0.33334600     1.25400
C467        C  0.44761539  0.93720730  0.32617424     0.87100
C468        C  0.05952690  0.55979842  0.33500734     0.87000
C469        C  0.50438290  0.99747129  0.40538118     0.87100
C470        C  0.00643556  0.99545238  0.24922375     0.87200
O471        O  0.46919256  0.68936752  0.33161385    -0.75100
O472        O  0.05404895  0.78050331  0.33368668    -0.75100
O473        O  0.01200994  0.73381782  0.39116467    -0.75200
O474        O  0.01181835  0.73626548  0.27379452    -0.75200
O475        O  0.47740937  0.76082265  0.27639184    -0.75100
O476        O  0.48115450  0.76229565  0.39413303    -0.75100
O477        O  0.02139093  0.80690772  0.33410870    -0.75100
O478        O  0.43677877  0.71606798  0.33632574    -0.75200
Ni479      Ni  0.01288299  0.73399577  0.33240773     1.25400
Ni480      Ni  0.47794763  0.76239907  0.33537510     1.25400
C481        C  0.43896762  0.68776246  0.33405641     0.87100
C482        C  0.05173171  0.80880696  0.33383881     0.87000
C483        C  0.99725167  0.74824206  0.41184633     0.87100
C484        C  0.99486370  0.74925368  0.25576777     0.87200
O485        O  0.27809339  0.55556553  0.33842187    -0.75100
O486        O  0.18372530  0.97222711  0.33368899    -0.75100
O487        O  0.23103431  0.50928024  0.39260867    -0.75200
O488        O  0.23607259  0.51552248  0.27541848    -0.75200
O489        O  0.25963304  0.98818887  0.27918085    -0.75100
O490        O  0.25502238  0.98456053  0.39593435    -0.75100
O491        O  0.21315705  0.94245752  0.33417573    -0.75100
O492        O  0.30650692  0.52471868  0.33517395    -0.75200
Ni493      Ni  0.23241863  0.51343132  0.33409060     1.25400
Ni494      Ni  0.25818794  0.98516772  0.33756231     1.25400
C495        C  0.30698268  0.55438229  0.33824366     0.87100
C496        C  0.18393651  0.94282823  0.33218175     0.87000
C497        C  0.24573184  0.49400517  0.41076781     0.87100
C498        C  0.25106121  0.50105606  0.25522464     0.87200
O499        O  0.26569604  0.73544655  0.27102944    -0.75100
O500        O  0.26691596  0.73201825  0.38837366    -0.75100
O501        O  0.22162612  0.69065017  0.32849566    -0.75200
O502        O  0.31123896  0.77679215  0.33092693    -0.75200
O503        O  0.28321412  0.80790390  0.33401699    -0.75100
O504        O  0.19345395  0.72164256  0.33317106    -0.75100
O505        O  0.23943729  0.76352895  0.39225902    -0.75100
O506        O  0.23690394  0.76592041  0.27521751    -0.75200
Ni507      Ni  0.26738255  0.73262202  0.32955440     1.25400
Ni508      Ni  0.23731030  0.76591185  0.33385433     1.25400
C509        C  0.25065188  0.75085674  0.25392852     0.87100
C510        C  0.25319747  0.74706206  0.40983679     0.87000
C511        C  0.19280728  0.69188293  0.33012580     0.87100
C512        C  0.31205852  0.80666285  0.33294985     0.87200
O513        O  0.03351568  0.96936109  0.99168227    -0.75100
O514        O  0.44669248  0.97208904  0.99703575    -0.75100
O515        O  0.48859375  0.97148184  0.93553379    -0.75200
O516        O  0.49131439  0.96986963  0.05265077    -0.75200
O517        O  0.02041098  0.52898441  0.06201145    -0.75100
O518        O  0.01963674  0.53112840  0.94442557    -0.75100
O519        O  0.47561869  0.52913489  0.00460671    -0.75100
O520        O  0.06439395  0.53136170  0.00205506    -0.75200
Ni521      Ni  0.48893857  0.96857840  0.99407919     1.25400
Ni522      Ni  0.02101266  0.53227088  0.00334717     1.25400
C523        C  0.06326457  0.99858960  0.99040526     0.87100
C524        C  0.44791885  0.00208865  0.00119743     0.87000
C525        C  0.50218834  0.00130984  0.91713371     0.87100
C526        C  0.50869344  0.99913447  0.07290981     0.87200
O527        O  0.05866532  0.78237215  0.00125497    -0.75100
O528        O  0.47068103  0.78268171  0.00228121    -0.75100
O529        O  0.01435227  0.78179215  0.06060046    -0.75200
O530        O  0.01506514  0.78355549  0.94308005    -0.75200
O531        O  0.48517674  0.72424337  0.94097220    -0.75100
O532        O  0.48387835  0.72239713  0.05853875    -0.75100
O533        O  0.44088294  0.72337570  0.99975096    -0.75100
O534        O  0.02867041  0.72305058  0.99902921    -0.75200
Ni535      Ni  0.01581143  0.78474334  0.00190172     1.25400
Ni536      Ni  0.48368449  0.72116222  0.99960955     1.25400
C537        C  0.05812219  0.75261157  0.99937750     0.87100
C538        C  0.44130706  0.75306216  0.00038822     0.87000
C539        C  0.99842525  0.75186730  0.07879375     0.87100
C540        C  0.00009240  0.75421917  0.92253848     0.87200
O541        O  0.22775025  0.53196422  0.00257475    -0.75100
O542        O  0.31552550  0.53131638  0.99802801    -0.75100
O543        O  0.26973763  0.53056956  0.94145188    -0.75200
O544        O  0.27357272  0.53307440  0.05872308    -0.75200
O545        O  0.24208322  0.97512029  0.06369509    -0.75100
O546        O  0.24184311  0.97125295  0.94654526    -0.75100
O547        O  0.28633617  0.97388699  0.00552657    -0.75100
O548        O  0.19748227  0.97237263  0.00452242    -0.75200
Ni549      Ni  0.27272100  0.53386774  0.00010308     1.25400
Ni550      Ni  0.24091050  0.97108669  0.00519416     1.25400
C551        C  0.19833177  0.50238258  0.00401260     0.87100
C552        C  0.31484292  0.50145461  0.99732357     0.87000
C553        C  0.25470567  0.50062197  0.92213900     0.87100
C554        C  0.25923386  0.50375148  0.07811394     0.87200
O555        O  0.22050363  0.78162407  0.00029546    -0.75100
O556        O  0.30781045  0.78039204  0.99907400    -0.75100
O557        O  0.26363308  0.77999521  0.94075730    -0.75200
O558        O  0.26504133  0.78183517  0.05834206    -0.75200
O559        O  0.23366125  0.72247894  0.05820874    -0.75100
O560        O  0.23387156  0.72070644  0.94092457    -0.75100
O561        O  0.27758210  0.72112246  0.99992483    -0.75100
O562        O  0.19002064  0.72230926  0.99921512    -0.75200
Ni563      Ni  0.26526560  0.78308132  0.99956478     1.25400
Ni564      Ni  0.23267651  0.71953498  0.99954388     1.25400
C565        C  0.19089199  0.75224505  0.00018823     0.87100
C566        C  0.30713416  0.75060310  0.00009111     0.87000
C567        C  0.24907173  0.75001159  0.92146813     0.87100
C568        C  0.24984410  0.75237369  0.07751209     0.87200
O569        O  0.02501012  0.96780869  0.66231659    -0.75100
O570        O  0.02905822  0.55698168  0.66699179    -0.75100
O571        O  0.02909255  0.51369671  0.72584052    -0.75200
O572        O  0.02634140  0.51087283  0.60852587    -0.75200
O573        O  0.46610122  0.98115601  0.60193148    -0.75100
O574        O  0.46426850  0.98108313  0.71971660    -0.75100
O575        O  0.46983255  0.52848186  0.66856272    -0.75100
O576        O  0.46564347  0.93738276  0.66052825    -0.75200
Ni577      Ni  0.02980183  0.51326150  0.66711104     1.25400
Ni578      Ni  0.46297408  0.98004838  0.66077265     1.25400
C579        C  0.49548841  0.93818968  0.66219604     0.87100
C580        C  0.49980011  0.55745243  0.66717347     0.87000
C581        C  0.49991384  0.49926386  0.74592036     0.87100
C582        C  0.99642379  0.49676910  0.58962544     0.87200
O583        O  0.02774776  0.71956426  0.66852964    -0.75100
O584        O  0.02647577  0.80693500  0.66600325    -0.75100
O585        O  0.02562863  0.76427838  0.72599711    -0.75200
O586        O  0.02839259  0.76248089  0.60849200    -0.75200
O587        O  0.46891770  0.73076469  0.60689343    -0.75100
O588        O  0.46643236  0.73476817  0.72425763    -0.75100
O589        O  0.46709361  0.77642806  0.66300177    -0.75100
O590        O  0.46841967  0.68922381  0.66784726    -0.75200
Ni591      Ni  0.02918786  0.76436908  0.66733340     1.25400
Ni592      Ni  0.46560939  0.73171173  0.66546216     1.25400
C593        C  0.49822499  0.68993084  0.66913188     0.87100
C594        C  0.49652799  0.80599697  0.66354249     0.87000
C595        C  0.49554014  0.74985892  0.74473704     0.87100
C596        C  0.49896379  0.74628249  0.58855734     0.87200
O597        O  0.22094431  0.52435680  0.66691745    -0.75100
O598        O  0.21910039  0.93610695  0.66927185    -0.75100
O599        O  0.22140043  0.98003967  0.73061859    -0.75200
O600        O  0.21825249  0.98107131  0.61312196    -0.75200
O601        O  0.28182058  0.51273595  0.60789388    -0.75100
O602        O  0.28101403  0.51097773  0.72528786    -0.75100
O603        O  0.27831079  0.96532072  0.66617713    -0.75100
O604        O  0.28021374  0.55524329  0.66860544    -0.75200
Ni605      Ni  0.21757530  0.97936004  0.67196298     1.25400
Ni606      Ni  0.28361029  0.51296877  0.66665600     1.25400
C607        C  0.25017703  0.55410211  0.66855267     0.87100
C608        C  0.24851000  0.93608662  0.66656356     0.87000
C609        C  0.25126238  0.49557834  0.74439027     0.87100
C610        C  0.25240864  0.49694531  0.58805380     0.87200
O611        O  0.21837456  0.68536397  0.66402813    -0.75100
O612        O  0.21773977  0.77307116  0.66613943    -0.75100
O613        O  0.21891252  0.72976186  0.60627262    -0.75200
O614        O  0.21748800  0.72910792  0.72379756    -0.75200
O615        O  0.27669596  0.75926509  0.72479266    -0.75100
O616        O  0.27824551  0.75896662  0.60750163    -0.75100
O617        O  0.27704845  0.80302824  0.66655503    -0.75100
O618        O  0.27767315  0.71522976  0.66592282    -0.75200
Ni619      Ni  0.21600636  0.72821994  0.66499515     1.25400
Ni620      Ni  0.27952570  0.76019818  0.66621182     1.25400
C621        C  0.24808353  0.68582473  0.66461043     0.87100
C622        C  0.24727414  0.80248993  0.66703143     0.87000
C623        C  0.24886189  0.74469095  0.58759486     0.87100
C624        C  0.24689440  0.74400985  0.74374253     0.87200
C625        C  0.24785066  0.90170981  0.66498239    -0.06800
C626        C  0.22221965  0.87350770  0.68824198    -0.17900
C627        C  0.22178236  0.84114539  0.69025160     0.10400
C628        C  0.24716705  0.83640340  0.66787418    -0.06700
C629        C  0.27257096  0.86446418  0.64436382    -0.17900
C630        C  0.27278778  0.89666181  0.64212947     0.10500
S631        S  0.18942015  0.80785365  0.72365472    -0.32900
S632        S  0.30350474  0.92904994  0.60694463    -0.32900
H633        H  0.27759349  0.93615393  0.59138931     0.28500
H634        H  0.21257706  0.79671324  0.73847622     0.28500
H635        H  0.20306402  0.87707028  0.70612629     0.19100
H636        H  0.29159887  0.86082043  0.62630472     0.19100
C637        C  0.24837160  0.65200233  0.66462798    -0.06800
C638        C  0.27290821  0.64942745  0.69006349    -0.17900
C639        C  0.27330812  0.61755343  0.69311232     0.10400
C640        C  0.24917268  0.58756788  0.66943729    -0.06700
C641        C  0.22444952  0.59005990  0.64424850    -0.17900
C642        C  0.22413166  0.62197520  0.64110326     0.10500
S643        S  0.30400380  0.61646610  0.72928013    -0.32900
S644        S  0.19375990  0.62320800  0.60458928    -0.32900
H645        H  0.21756577  0.65784625  0.59124829     0.28500
H646        H  0.28070040  0.58151731  0.74205105     0.28500
H647        H  0.29123576  0.67214461  0.70870331     0.19100
H648        H  0.20616694  0.56736503  0.62555060     0.19100
C649        C  0.49625829  0.83974137  0.66183316    -0.06800
C650        C  0.02049541  0.86838192  0.68656471    -0.17900
C651        C  0.02025490  0.90043104  0.68818684     0.10400
C652        C  0.49581343  0.90446462  0.66362348    -0.06700
C653        C  0.47171860  0.87590980  0.63871481    -0.17900
C654        C  0.47203450  0.84388190  0.63705073     0.10500
S655        S  0.05034765  0.93414318  0.72395217    -0.32900
S656        S  0.44239603  0.81027617  0.60091467    -0.32900
H657        H  0.46676898  0.79941266  0.58904284     0.28500
H658        H  0.02652115  0.94564437  0.73589156     0.28500
H659        H  0.03891032  0.86530537  0.70599582     0.19100
H660        H  0.45331602  0.87899662  0.61927749     0.19100
C661        C  0.49879198  0.65616502  0.67020560    -0.06800
C662        C  0.02696053  0.65452002  0.65069105    -0.17900
C663        C  0.02774709  0.62271037  0.64825684     0.10400
C664        C  0.50018234  0.59171720  0.66667023    -0.06700
C665        C  0.47217710  0.59349766  0.68614509    -0.17900
C666        C  0.47137514  0.62521170  0.68857562     0.10500
S667        S  0.06341724  0.62314115  0.61915809    -0.32900
S668        S  0.43568523  0.62464394  0.71769575    -0.32900
H669        H  0.45783907  0.65757150  0.73733231     0.28500
H670        H  0.04150511  0.59025988  0.59922677     0.28500
H671        H  0.04789213  0.67787121  0.63593187     0.19100
H672        H  0.45114333  0.57017311  0.70083573     0.19100
C673        C  0.24939134  0.74881818  0.87609462    -0.06800
C674        C  0.21993140  0.72115865  0.85558724    -0.17900
C675        C  0.21863156  0.71824019  0.81274970     0.10400
C676        C  0.24691214  0.74438282  0.78927045    -0.06700
C677        C  0.27647360  0.77194115  0.80991041    -0.17900
C678        C  0.27836060  0.77401907  0.85275917     0.10500
S679        S  0.18102309  0.67947005  0.79047866    -0.32900
S680        S  0.31932736  0.80816841  0.87550264    -0.32900
H681        H  0.32036558  0.78603181  0.90582151     0.28500
H682        H  0.20162280  0.67246545  0.76239326     0.28500
H683        H  0.19781578  0.70127142  0.87312359     0.19100
H684        H  0.29867216  0.79189673  0.79255285     0.19100
C685        C  0.25136677  0.49570844  0.78988120    -0.06800
C686        C  0.28050696  0.52376200  0.81041642    -0.17900
C687        C  0.28264412  0.52572544  0.85321215     0.10400
C688        C  0.25441110  0.49966243  0.87671929    -0.06700
C689        C  0.22819941  0.96985947  0.86111752    -0.17900
C690        C  0.22606677  0.96694005  0.81831453     0.10500
S691        S  0.32304979  0.56114067  0.87554730    -0.32900
S692        S  0.18873156  0.92760109  0.79655458    -0.32900
H693        H  0.20895163  0.92252409  0.76607343     0.28500
H694        H  0.32625870  0.53935184  0.90467535     0.28500
H695        H  0.30218359  0.54428808  0.79297868     0.19100
H696        H  0.20673174  0.94957979  0.87902945     0.19100
C697        C  0.40720771  0.75276534  0.99934693    -0.06800
C698        C  0.37802015  0.72564490  0.02001118    -0.17900
C699        C  0.34534355  0.72457427  0.02167282     0.10400
C700        C  0.34117400  0.75069680  0.00112248    -0.06700
C701        C  0.37037517  0.77775364  0.98031545    -0.17900
C702        C  0.40303978  0.77879436  0.97869877     0.10500
S703        S  0.31091986  0.69010529  0.05214171    -0.32900
S704        S  0.43743630  0.81265175  0.94763306    -0.34100
H705        H  0.44904017  0.79012271  0.93083931     0.28500
H706        H  0.29829379  0.71167292  0.06906741     0.28500
H707        H  0.38092252  0.70559087  0.03601759     0.19100
H708        H  0.36745279  0.79767704  0.96401972     0.19100
C709        C  0.09209055  0.75256489  0.99815682    -0.06800
C710        C  0.12021996  0.77729725  0.02296393    -0.17900
C711        C  0.15267113  0.77769232  0.02451357     0.10400
C712        C  0.15716342  0.75278108  0.00055514    -0.06700
C713        C  0.12901613  0.72802675  0.97579309    -0.17900
C714        C  0.09689292  0.72807137  0.97371771     0.10500
S715        S  0.18710659  0.80853048  0.05918598    -0.32900
S716        S  0.06400418  0.69763121  0.93757511    -0.32900
H717        H  0.05310465  0.72161138  0.92523423     0.28500
H718        H  0.17004711  0.82734173  0.07195754     0.28500
H719        H  0.11636664  0.79579520  0.04198979     0.19100
H720        H  0.13250131  0.70923336  0.95681390     0.19100
C721        C  0.49910688  0.75450838  0.87731438    -0.06800
C722        C  0.96852372  0.72829606  0.85689963    -0.17900
C723        C  0.96593934  0.72636480  0.81393333     0.10400
C724        C  0.49504240  0.75117013  0.79043258    -0.06700
C725        C  0.52543066  0.77781673  0.81089547    -0.17900
C726        C  0.52781018  0.77984126  0.85385916     0.10500
S727        S  0.92565707  0.69121363  0.79054649    -0.32900
S728        S  0.56841859  0.81368136  0.87799624    -0.32900
H729        H  0.58739409  0.82908691  0.84184301     0.28500
H730        H  0.90765614  0.67495477  0.82689411     0.28500
H731        H  0.94643044  0.70919467  0.87505094     0.19100
H732        H  0.54762368  0.79712583  0.79305530     0.19100
C733        C  0.41423691  0.00277213  0.00380218    -0.06800
C734        C  0.38630883  0.97993605  0.97754828    -0.17900
C735        C  0.35441264  0.98047326  0.97657698     0.10400
C736        C  0.34857540  0.50100644  0.99706122    -0.06700
C737        C  0.37644218  0.52580372  0.02205013    -0.17900
C738        C  0.40794841  0.52483570  0.02612229     0.10500
S739        S  0.32168340  0.95202766  0.93906236    -0.32900
S740        S  0.44039669  0.55573296  0.06235605    -0.32900
H741        H  0.45030582  0.53154422  0.07676166     0.28500
H742        H  0.31061502  0.97642806  0.92951090     0.28500
H743        H  0.38978332  0.96226697  0.95655769     0.19100
H744        H  0.37310955  0.54524685  0.03988301     0.19100
C745        C  0.09682572  0.99771197  0.99084920    -0.06800
C746        C  0.10183869  0.97866858  0.02191249    -0.17900
C747        C  0.13464263  0.98040940  0.02724864     0.10400
C748        C  0.16445385  0.50267252  0.00623882    -0.06700
C749        C  0.16320925  0.53142665  0.98913123    -0.17900
C750        C  0.13162432  0.53244618  0.98779640     0.10500
S751        S  0.13930368  0.95768884  0.07047641    -0.32900
S752        S  0.13381976  0.57086922  0.96482730    -0.32900
H753        H  0.12845789  0.58370139  0.00259613     0.28500
H754        H  0.17500620  0.98317934  0.07876298     0.28500
H755        H  0.08051506  0.96356272  0.04333459     0.19100
H756        H  0.18700539  0.55322738  0.97606490     0.19100
C757        C  0.49990914  0.00132785  0.87152019    -0.06800
C758        C  0.47521819  0.96952461  0.85124818    -0.17900
C759        C  0.47230193  0.96702054  0.80841091     0.10400
C760        C  0.49416573  0.99714732  0.78472954    -0.06700
C761        C  0.02808227  0.52936931  0.81185044    -0.17900
C762        C  0.03087308  0.53086986  0.85469125     0.10500
S763        S  0.44130760  0.92424756  0.78607439    -0.32900
S764        S  0.06839997  0.56960245  0.87700540    -0.32900
H765        H  0.07662107  0.54966039  0.90371995     0.28500
H766        H  0.46318314  0.92644979  0.75296207     0.28500
H767        H  0.45822545  0.94605518  0.86882789     0.19100
H768        H  0.04739443  0.55182039  0.79432859     0.19100
C769        C  0.24973594  0.74549504  0.54238969    -0.06800
C770        C  0.27272163  0.73668950  0.52161906    -0.17900
C771        C  0.27401529  0.73600858  0.47869301     0.10400
C772        C  0.25242446  0.74533600  0.45548621    -0.06700
C773        C  0.22952402  0.75425520  0.47670676    -0.17900
C774        C  0.22810822  0.75464388  0.51954137     0.10500
S775        S  0.30425001  0.72359864  0.45603180    -0.32900
S776        S  0.19943562  0.76878106  0.54312905    -0.32900
H777        H  0.22303755  0.78822947  0.57528989     0.28500
H778        H  0.27666331  0.69276791  0.43713847     0.28500
H779        H  0.28936602  0.72956599  0.53903341     0.19100
H780        H  0.21270025  0.76148011  0.45987334     0.19100
C781        C  0.25082836  0.75263123  0.12259258    -0.06800
C782        C  0.21848681  0.73454832  0.14374537    -0.17900
C783        C  0.21758729  0.73448397  0.18663441     0.10400
C784        C  0.24977209  0.75177526  0.20895882    -0.06700
C785        C  0.28213048  0.76938252  0.18787442    -0.17900
C786        C  0.28306440  0.77020815  0.14499220     0.10500
S787        S  0.17485611  0.71029059  0.21114282    -0.32900
S788        S  0.32627466  0.79325523  0.12111553    -0.32900
H789        H  0.31700704  0.77212890  0.08533254     0.28500
H790        H  0.17999638  0.73891139  0.23663792     0.28500
H791        H  0.19370759  0.72089101  0.12671618     0.19100
H792        H  0.30688585  0.78249912  0.20499858     0.19100
C793        C  0.24665579  0.49394210  0.45573206    -0.06800
C794        C  0.27981890  0.50800689  0.47496752    -0.17900
C795        C  0.28291892  0.50950446  0.51770471     0.10400
C796        C  0.25188797  0.49661493  0.54232703    -0.06700
C797        C  0.21363739  0.98939830  0.52837024    -0.17900
C798        C  0.21041061  0.98959613  0.48562587     0.10500
S799        S  0.32735522  0.52839910  0.53793487    -0.32900
S800        S  0.16716965  0.97676286  0.46481678    -0.32900
H801        H  0.17010518  0.95853112  0.43026874     0.28500
H802        H  0.31926825  0.49816730  0.56077877     0.28500
H803        H  0.30365920  0.51818297  0.45641008     0.19100
H804        H  0.19025379  0.98204005  0.54694334     0.19100
C805        C  0.25989915  0.50449640  0.12336442    -0.06800
C806        C  0.25181345  0.03262687  0.14829438    -0.17900
C807        C  0.24896216  0.03322230  0.19125569     0.10400
C808        C  0.25407648  0.50354029  0.20984406    -0.06700
C809        C  0.25962785  0.47830843  0.18849413    -0.17900
C810        C  0.26320134  0.47889539  0.14593587     0.10500
S811        S  0.24568331  0.06923533  0.21562203    -0.32900
S812        S  0.27363375  0.44724562  0.12258708    -0.32900
H813        H  0.29680601  0.47082631  0.09300284     0.28500
H814        H  0.25072784  0.08921988  0.18016633     0.28500
H815        H  0.25009604  0.05247643  0.13038597     0.19100
H816        H  0.26155652  0.45793123  0.20508540     0.19100
C817        C  0.49976566  0.74620827  0.54350531    -0.06800
C818        C  0.01327227  0.77881203  0.52339929    -0.17900
C819        C  0.01284314  0.78025628  0.48058061     0.10400
C820        C  0.49867652  0.74840427  0.45719107    -0.06700
C821        C  0.48608605  0.71590171  0.47715033    -0.17900
C822        C  0.48638136  0.71445484  0.52001796     0.10500
S823        S  0.03115608  0.82347103  0.45796372    -0.32900
S824        S  0.46955365  0.67145476  0.54292170    -0.32900
H825        H  0.49261799  0.68365204  0.57693529     0.28500
H826        H  0.04616905  0.81555559  0.42392010     0.28500
H827        H  0.02373037  0.80325870  0.54138548     0.19100
H828        H  0.47564462  0.69143925  0.45921123     0.19100
C829        C  0.40593340  0.65294406  0.33533465    -0.06800
C830        C  0.37848955  0.64955556  0.36127756    -0.17900
C831        C  0.34663828  0.61728346  0.36447463     0.10400
C832        C  0.34144883  0.58775023  0.34028004    -0.06700
C833        C  0.36923151  0.59078469  0.31524880    -0.17900
C834        C  0.40116693  0.62304747  0.31213934     0.10500
S835        S  0.31445728  0.61515136  0.40130894    -0.32900
S836        S  0.43357828  0.62480208  0.27596934    -0.32900
H837        H  0.44280183  0.65859040  0.26114176     0.28500
H838        H  0.30282454  0.57992307  0.41284813     0.28500
H839        H  0.38218731  0.67205880  0.37997799     0.19100
H840        H  0.36542527  0.56830237  0.29643265     0.19100
C841        C  0.14984584  0.90889363  0.32926577    -0.06800
C842        C  0.11911172  0.90782255  0.34481674    -0.17900
C843        C  0.08649012  0.87597050  0.34596991     0.10400
C844        C  0.08473653  0.84390737  0.33251219    -0.06700
C845        C  0.11535110  0.84525888  0.31602863    -0.17900
C846        C  0.14736248  0.87730339  0.31306962     0.10500
S847        S  0.04833279  0.87725669  0.36643589    -0.32900
S848        S  0.18318397  0.87608110  0.28617674    -0.32900
H849        H  0.19427685  0.90816109  0.26553186     0.28500
H850        H  0.06238200  0.91416919  0.36300594     0.28500
H851        H  0.12081118  0.93194494  0.35715442     0.19100
H852        H  0.11412355  0.82124336  0.30398018     0.19100
C853        C  0.99671488  0.75145668  0.12406128    -0.06800
C854        C  0.02823179  0.77180103  0.14646006    -0.17900
C855        C  0.02815031  0.77205339  0.18941313     0.10400
C856        C  0.99596547  0.75124523  0.21067324    -0.06700
C857        C  0.46438331  0.73140301  0.18858413    -0.17900
C858        C  0.46435752  0.73151544  0.14560729     0.10500
S859        S  0.06970187  0.80017257  0.21545838    -0.32900
S860        S  0.42204510  0.70704431  0.11984378    -0.32900
H861        H  0.43037028  0.73256207  0.08940873     0.28500
H862        H  0.05458100  0.81110867  0.24661654     0.28500
H863        H  0.05309790  0.78758114  0.13037527     0.19100
H864        H  0.43954418  0.71580529  0.20478586     0.19100
C865        C  0.50330177  0.99813185  0.45080157    -0.06800
C866        C  0.47291839  0.99521793  0.46996859    -0.17900
C867        C  0.46964962  0.99474110  0.51286823     0.10400
C868        C  0.49620938  0.49730894  0.54385889    -0.06700
C869        C  0.02875332  0.50877751  0.52336645    -0.17900
C870        C  0.03134411  0.51170456  0.48072740     0.10500
S871        S  0.43071785  0.99335347  0.53517689    -0.32900
S872        S  0.07488617  0.52852188  0.45837847    -0.32900
H873        H  0.06969776  0.54670120  0.42635243     0.28500
H874        H  0.41470143  0.99452990  0.49832175     0.28500
H875        H  0.45149229  0.99308978  0.45110723     0.19100
H876        H  0.05273637  0.51602350  0.54061521     0.19100
C877        C  0.41347711  0.90324467  0.32699112    -0.06800
C878        C  0.38430945  0.90353928  0.34542770    -0.17900
C879        C  0.35148298  0.87250967  0.34921456     0.10400
C880        C  0.34687626  0.84002585  0.33302889    -0.06700
C881        C  0.37614666  0.83959998  0.31488321    -0.17900
C882        C  0.40916123  0.87069743  0.31138196     0.10500
S883        S  0.31745689  0.87627700  0.37703918    -0.32900
S884        S  0.44383424  0.86698047  0.28501660    -0.32900
H885        H  0.45574247  0.89825640  0.26250583     0.28500
H886        H  0.30659510  0.84519869  0.39968085     0.28500
H887        H  0.38734102  0.92808880  0.35833485     0.19100
H888        H  0.37306289  0.81500759  0.30206616     0.19100
C889        C  0.09315848  0.59400576  0.33460210    -0.06800
C890        C  0.12100762  0.59615279  0.31048649    -0.17900
C891        C  0.15316113  0.62800230  0.30702921     0.10400
C892        C  0.15831682  0.65846228  0.32931233    -0.06700
C893        C  0.13030927  0.65646941  0.35310169    -0.17900
C894        C  0.09797696  0.62459690  0.35631109     0.10500
S895        S  0.18562770  0.62821020  0.27203222    -0.32900
S896        S  0.06491432  0.62448089  0.39022247    -0.32900
H897        H  0.05256795  0.59000134  0.40486560     0.28500
H898        H  0.19704397  0.66252247  0.25732688     0.28500
H899        H  0.11729152  0.57303100  0.29306033     0.19100
H900        H  0.13406335  0.67957917  0.37057130     0.19100
C901        C  0.50683451  0.99473922  0.20416799    -0.06800
C902        C  0.03514966  0.50887469  0.19057574    -0.17900
C903        C  0.03674723  0.50924976  0.14767917     0.10400
C904        C  0.50929530  0.99797890  0.11791012    -0.06700
C905        C  0.47658532  0.98122076  0.13840275    -0.17900
C906        C  0.47498494  0.97942974  0.18116128     0.10500
S907        S  0.07944678  0.52429458  0.12391867    -0.32900
S908        S  0.43150672  0.95679986  0.20438027    -0.32900
H909        H  0.44132087  0.94321296  0.23743155     0.28500
H910        H  0.06618014  0.50034348  0.09041958     0.28500
H911        H  0.05944381  0.51827403  0.20811211     0.19100
H912        H  0.45203720  0.96960578  0.12090916     0.19100
O913        O  0.97399614  0.44157870  0.33439638    -0.75100
O914        O  0.56429740  0.02649925  0.32915423    -0.75100
O915        O  0.51665454  0.48723285  0.39337837    -0.75200
O916        O  0.51830032  0.48509010  0.27614250    -0.75200
O917        O  0.99060173  0.00974173  0.26792890    -0.75100
O918        O  0.98915594  0.01150609  0.38522728    -0.75100
O919        O  0.53369338  0.05511822  0.32734101    -0.75100
O920        O  0.94318696  0.46998093  0.33283378    -0.75200
Ni921      Ni  0.51845170  0.48509857  0.33484294     1.25400
Ni922      Ni  0.98890022  0.01168208  0.32651161     1.25400
C923        C  0.94426240  0.44105413  0.33303264     0.87100
C924        C  0.56329821  0.05547769  0.32917519     0.87000
C925        C  0.00114062  0.50195221  0.41210480     0.87100
C926        C  0.50266525  0.49846682  0.25613557     0.87200
O927        O  0.96473855  0.18978474  0.33387198    -0.75100
O928        O  0.55295557  0.27836802  0.33375844    -0.75100
O929        O  0.50992802  0.23352320  0.39253552    -0.75200
O930        O  0.50822713  0.23415306  0.27513371    -0.75200
O931        O  0.97729773  0.26253657  0.27760083    -0.75100
O932        O  0.98105566  0.26398089  0.39539915    -0.75100
O933        O  0.52291331  0.30743920  0.33524072    -0.75100
O934        O  0.93523205  0.21952019  0.33761444    -0.75200
Ni935      Ni  0.51003985  0.23289209  0.33375698     1.25400
Ni936      Ni  0.97806780  0.26440935  0.33660264     1.25400
C937        C  0.93543642  0.19018107  0.33575020     0.87100
C938        C  0.55244696  0.30767523  0.33397729     0.87000
C939        C  0.49606568  0.24880415  0.41329493     0.87100
C940        C  0.49254201  0.24845083  0.25710159     0.87200
O941        O  0.77181519  0.05999669  0.34186166    -0.75100
O942        O  0.68877029  0.46907417  0.32954035    -0.75100
O943        O  0.72494284  0.01386550  0.39680277    -0.75200
O944        O  0.73057436  0.01844455  0.27925865    -0.75200
O945        O  0.76357169  0.48388822  0.27373114    -0.75100
O946        O  0.76068446  0.47965472  0.39052314    -0.75100
O947        O  0.71705144  0.43820148  0.32918356    -0.75100
O948        O  0.80105593  0.02993602  0.34069873    -0.75200
Ni949      Ni  0.72662107  0.01718797  0.33799992     1.25400
Ni950      Ni  0.76285337  0.48043969  0.33205109     1.25400
C951        C  0.80098645  0.05936351  0.34219218     0.87100
C952        C  0.68810575  0.43923382  0.32802437     0.87000
C953        C  0.73960307  0.99884379  0.41562976     0.87100
C954        C  0.74634079  0.00438654  0.25980598     0.87200
O955        O  0.76705570  0.23661547  0.27177341    -0.75100
O956        O  0.76964213  0.23290132  0.38934631    -0.75100
O957        O  0.72528112  0.19004392  0.32942303    -0.75200
O958        O  0.81175012  0.27919633  0.33176858    -0.75200
O959        O  0.78096122  0.30753442  0.33611796    -0.75100
O960        O  0.69418957  0.21804165  0.33450637    -0.75100
O961        O  0.73880391  0.26112128  0.39389012    -0.75100
O962        O  0.73540206  0.26415662  0.27694534    -0.75200
Ni963      Ni  0.76956132  0.23370565  0.33037962     1.25400
Ni964      Ni  0.73631391  0.26378920  0.33558860     1.25400
C965        C  0.75024107  0.25046774  0.25515189     0.87100
C966        C  0.75423058  0.24612466  0.41109033     0.87000
C967        C  0.69546617  0.18925528  0.33105756     0.87100
C968        C  0.81074615  0.30810894  0.33461080     0.87200
O969        O  0.53609660  0.47208424  0.00069852    -0.75100
O970        O  0.94667880  0.47000652  0.00071859    -0.75100
O971        O  0.99205285  0.47196612  0.94200941    -0.75200
O972        O  0.99038053  0.46959470  0.05923025    -0.75200
O973        O  0.52463675  0.02910582  0.05480450    -0.75100
O974        O  0.51731319  0.03059756  0.93775891    -0.75100
O975        O  0.97781646  0.03140300  0.00196032    -0.75100
O976        O  0.56438681  0.02861162  0.99064533    -0.75200
Ni977      Ni  0.99028198  0.46878960  0.00054208     1.25400
Ni978      Ni  0.52215460  0.03203979  0.99633169     1.25400
C979        C  0.56506962  0.50221885  0.00137415     0.87100
C980        C  0.94657668  0.49946069  0.00327409     0.87000
C981        C  0.00603169  0.50185108  0.92373669     0.87100
C982        C  0.00547166  0.49886062  0.07979965     0.87200
O983        O  0.55059429  0.28052579  0.00232800    -0.75100
O984        O  0.96232648  0.28023052  0.00409517    -0.75100
O985        O  0.50625816  0.27896436  0.06210324    -0.75200
O986        O  0.50703886  0.28202284  0.94465769    -0.75200
O987        O  0.97650077  0.22270614  0.94168596    -0.75100
O988        O  0.97683331  0.21961049  0.05913335    -0.75100
O989        O  0.93275784  0.22091019  0.00171920    -0.75100
O990        O  0.52088292  0.22124881  0.99853754    -0.75200
Ni991      Ni  0.50761439  0.28257799  0.00346608     1.25400
Ni992      Ni  0.97574748  0.21901886  0.00023470     1.25400
C993        C  0.55024554  0.25089650  0.99945741     0.87100
C994        C  0.93302374  0.25051751  0.00238400     0.87000
C995        C  0.49123833  0.24884930  0.07995891     0.87100
C996        C  0.49181193  0.25280926  0.92390862     0.87200
O997        O  0.72636503  0.03161269  0.00155920    -0.75100
O998        O  0.81556952  0.03328382  0.00558646    -0.75100
O999        O  0.77179363  0.03056256  0.94504490    -0.75200
O1000       O  0.77013194  0.03433778  0.06260638    -0.75200
O1001       O  0.74361852  0.47376082  0.05881073    -0.75100
O1002       O  0.73987666  0.47126965  0.94154579    -0.75100
O1003       O  0.78540640  0.47200660  0.99807133    -0.75100
O1004       O  0.69790437  0.47268279  0.00247839    -0.75200
Ni1005     Ni  0.77199259  0.03460529  0.00372731     1.25400
Ni1006     Ni  0.74062817  0.47033504  0.00022470     1.25400
C1007       C  0.69728925  0.00167389  0.00240069     0.87100
C1008       C  0.81557571  0.00375965  0.00505658     0.87000
C1009       C  0.75733845  0.00029076  0.92640829     0.87100
C1010       C  0.75620780  0.00522662  0.08250468     0.87200
O1011       O  0.71285664  0.28008892  0.00123626    -0.75100
O1012       O  0.79983225  0.27811704  0.99961914    -0.75100
O1013       O  0.75549975  0.27766101  0.94165280    -0.75200
O1014       O  0.75785477  0.28067203  0.05906244    -0.75200
O1015       O  0.72591445  0.22137801  0.05971841    -0.75100
O1016       O  0.72610050  0.21846039  0.94198984    -0.75100
O1017       O  0.76930519  0.21888940  0.00154357    -0.75100
O1018       O  0.68216382  0.22079640  0.00023077    -0.75200
Ni1019     Ni  0.75748003  0.28122515  0.00031727     1.25400
Ni1020     Ni  0.72466245  0.21774019  0.00088514     1.25400
C1021       C  0.68316360  0.25079185  0.00107474     0.87100
C1022       C  0.79894584  0.24823205  0.00115052     0.87000
C1023       C  0.74172645  0.24772786  0.92237344     0.87100
C1024       C  0.74283372  0.25145300  0.07865991     0.87200
O1025       O  0.52632693  0.46752622  0.66720403    -0.75100
O1026       O  0.52375129  0.05509951  0.66197185    -0.75100
O1027       O  0.52357852  0.01196317  0.72054041    -0.75200
O1028       O  0.52527527  0.01104118  0.60334643    -0.75200
O1029       O  0.96730902  0.48282733  0.60987077    -0.75100
O1030       O  0.96983129  0.48505926  0.72740257    -0.75100
O1031       O  0.96444826  0.02490687  0.66132600    -0.75100
O1032       O  0.96703506  0.43915970  0.66849303    -0.75200
Ni1033     Ni  0.52646494  0.01250708  0.66205480     1.25400
Ni1034     Ni  0.96640073  0.48289512  0.66866341     1.25400
C1035       C  0.99623668  0.43861228  0.66842536     0.87100
C1036       C  0.99392183  0.05447013  0.66161762     0.87000
C1037       C  0.99390458  0.99656002  0.73940898     0.87100
C1038       C  0.49600758  0.99627730  0.58313480     0.87200
O1039       O  0.52226875  0.21624870  0.67136128    -0.75100
O1040       O  0.52220648  0.30408697  0.66691342    -0.75100
O1041       O  0.52043739  0.26209813  0.72784339    -0.75200
O1042       O  0.52395611  0.25885050  0.61045924    -0.75200
O1043       O  0.96441088  0.22838520  0.60809916    -0.75100
O1044       O  0.96131515  0.23223227  0.72550724    -0.75100
O1045       O  0.96283692  0.27427413  0.66444577    -0.75100
O1046       O  0.96286642  0.18627461  0.66929792    -0.75200
Ni1047     Ni  0.52432157  0.26128556  0.66924711     1.25400
Ni1048     Ni  0.96074085  0.22918635  0.66675701     1.25400
C1049       C  0.99254214  0.18674607  0.67106273     0.87100
C1050       C  0.99246222  0.30367649  0.66491263     0.87000
C1051       C  0.99022102  0.24829370  0.74625750     0.87100
C1052       C  0.99463580  0.24340441  0.59009067     0.87200
O1053       O  0.72030528  0.02460680  0.67447664    -0.75100
O1054       O  0.72368482  0.43766120  0.66482136    -0.75100
O1055       O  0.72179134  0.48083811  0.72455207    -0.75200
O1056       O  0.72275420  0.48119835  0.60727399    -0.75200
O1057       O  0.77764852  0.01146043  0.61156319    -0.75100
O1058       O  0.78099621  0.00871766  0.72847896    -0.75100
O1059       O  0.78289173  0.46849412  0.66467560    -0.75100
O1060       O  0.77960264  0.05410503  0.67367037    -0.75200
Ni1061     Ni  0.72018972  0.47992045  0.66584004     1.25400
Ni1062     Ni  0.78135736  0.01097409  0.66991402     1.25400
C1063       C  0.75000331  0.05386738  0.67485324     0.87100
C1064       C  0.75370036  0.43868949  0.66416814     0.87000
C1065       C  0.75196160  0.99401397  0.74892896     0.87100
C1066       C  0.74772813  0.99690099  0.59283820     0.87200
O1067       O  0.72068192  0.18660161  0.66459584    -0.75100
O1068       O  0.72243953  0.27550877  0.66544332    -0.75100
O1069       O  0.72382656  0.23175442  0.60622350    -0.75200
O1070       O  0.71903870  0.23016287  0.72360099    -0.75200
O1071       O  0.77825740  0.25941539  0.72691674    -0.75100
O1072       O  0.78313445  0.26004428  0.60938773    -0.75100
O1073       O  0.78164684  0.30440764  0.66830327    -0.75100
O1074       O  0.77988578  0.21547573  0.66835607    -0.75200
Ni1075     Ni  0.71939368  0.22999307  0.66479879     1.25400
Ni1076     Ni  0.78285500  0.26088950  0.66831837     1.25400
C1077       C  0.75002286  0.18640014  0.66645893     0.87100
C1078       C  0.75226257  0.30462969  0.66756972     0.87000
C1079       C  0.75420129  0.24605741  0.58859297     0.87100
C1080       C  0.74784773  0.24424760  0.74462962     0.87200
C1081       C  0.75419613  0.40477896  0.66411635    -0.06800
C1082       C  0.72596580  0.37542634  0.68327312    -0.17900
C1083       C  0.72522471  0.34299947  0.68613326     0.10400
C1084       C  0.75290565  0.33904953  0.66844153    -0.06700
C1085       C  0.78140438  0.36847515  0.64969126    -0.17900
C1086       C  0.78217277  0.40098750  0.64689061     0.10500
S1087       S  0.68915718  0.30853573  0.71482105    -0.32900
S1088       S  0.81831371  0.43556751  0.61854292    -0.32900
H1089       H  0.79596937  0.44451101  0.59711011     0.28500
H1090       H  0.71058326  0.29744099  0.73460866     0.28500
H1091       H  0.70467843  0.37801723  0.69736478     0.19100
H1092       H  0.80265357  0.36577749  0.63566830     0.19100
C1093       C  0.74966865  0.15227484  0.66763004    -0.06800
C1094       C  0.77551576  0.15048590  0.69153197    -0.17900
C1095       C  0.77565801  0.11858508  0.69571064     0.10400
C1096       C  0.74977478  0.08767929  0.67486001    -0.06700
C1097       C  0.72378600  0.08938269  0.65121451    -0.17900
C1098       C  0.72372110  0.12128741  0.64688072     0.10500
S1099       S  0.80844404  0.11881414  0.72960486    -0.32900
S1100       S  0.69121639  0.12095781  0.61244570    -0.32900
H1101       H  0.71473361  0.15415052  0.59528222     0.28500
H1102       H  0.78576289  0.08472417  0.74520575     0.28500
H1103       H  0.79520686  0.17392346  0.70811734     0.19100
H1104       H  0.70416821  0.06594751  0.63454967     0.19100
C1105       C  0.99289637  0.33792594  0.66449719    -0.06800
C1106       C  0.52009660  0.36687425  0.68633632    -0.17900
C1107       C  0.52113949  0.39950298  0.68936616     0.10400
C1108       C  0.99507075  0.40404313  0.66900814    -0.06700
C1109       C  0.96779389  0.37510887  0.64730668    -0.17900
C1110       C  0.96662990  0.34235424  0.64440921     0.10500
S1111       S  0.55501042  0.43335811  0.72193610    -0.32900
S1112       S  0.93214583  0.30815746  0.61278278    -0.32900
H1113       H  0.95433718  0.29661192  0.59500638     0.28500
H1114       H  0.53272425  0.44522265  0.73865016     0.28500
H1115       H  0.53999687  0.36369113  0.70259167     0.19100
H1116       H  0.94787257  0.37837914  0.63123057     0.19100
C1117       C  0.99294212  0.15292119  0.67083337    -0.06800
C1118       C  0.51986287  0.15121804  0.64838988    -0.17900
C1119       C  0.52012060  0.11931449  0.64363122     0.10400
C1120       C  0.99348196  0.08828220  0.66274103    -0.06700
C1121       C  0.96676308  0.09001359  0.68544364    -0.17900
C1122       C  0.96642528  0.12194769  0.69011289     0.10500
S1123       S  0.55380290  0.11966216  0.61065042    -0.32900
S1124       S  0.93262065  0.12170545  0.72279476    -0.32900
H1125       H  0.95478161  0.15584108  0.73980728     0.28500
H1126       H  0.53106107  0.08620868  0.59237712     0.28500
H1127       H  0.54002327  0.17461775  0.63292575     0.19100
H1128       H  0.94662993  0.06657198  0.70086615     0.19100
C1129       C  0.74420915  0.24686638  0.87689766    -0.06800
C1130       C  0.71841916  0.21692860  0.85491408    -0.17900
C1131       C  0.71954368  0.21472744  0.81202572     0.10400
C1132       C  0.74624111  0.24369418  0.79002341    -0.06700
C1133       C  0.77232842  0.27326863  0.81194704    -0.17900
C1134       C  0.77212111  0.27487068  0.85481082     0.10500
S1135       S  0.68740583  0.17349166  0.78756962    -0.32900
S1136       S  0.80953759  0.31249774  0.87908942    -0.32900
H1137       H  0.81449928  0.29183292  0.90823888     0.28500
H1138       H  0.71141090  0.17316966  0.75856390     0.28500
H1139       H  0.69740559  0.19478775  0.87125278     0.19100
H1140       H  0.79340239  0.29531495  0.79553411     0.19100
C1141       C  0.75364074  0.99385574  0.79431971    -0.06800
C1142       C  0.78324829  0.02185761  0.81435505    -0.17900
C1143       C  0.78587761  0.02408046  0.85718274     0.10400
C1144       C  0.75766753  0.99838742  0.88105085    -0.06700
C1145       C  0.72516563  0.47162201  0.85620951    -0.17900
C1146       C  0.72350723  0.46905615  0.81332004     0.10500
S1147       S  0.82651866  0.05953960  0.87909043    -0.32900
S1148       S  0.68590570  0.43030391  0.79097478    -0.32900
H1149       H  0.70637603  0.42385176  0.76212527     0.28500
H1150       H  0.82874180  0.03879186  0.91032440     0.28500
H1151       H  0.80465071  0.04229059  0.79652083     0.19100
H1152       H  0.70346515  0.45129432  0.87381738     0.19100
C1153       C  0.89886144  0.25008109  0.00112789    -0.06800
C1154       C  0.86980421  0.22345694  0.02247115    -0.17900
C1155       C  0.83707231  0.22233640  0.02364892     0.10400
C1156       C  0.83284174  0.24804905  0.00220028    -0.06700
C1157       C  0.86187511  0.27448765  0.98059156    -0.17900
C1158       C  0.89448998  0.27543749  0.97924086     0.10500
S1159       S  0.80263044  0.18836752  0.05459080    -0.32900
S1160       S  0.92855663  0.30821838  0.94688309    -0.34100
H1161       H  0.93999562  0.28517009  0.93135277     0.28500
H1162       H  0.79036226  0.21038143  0.07109980     0.28500
H1163       H  0.87286547  0.20386707  0.03932825     0.19100
H1164       H  0.85885067  0.29398404  0.96348153     0.19100
C1165       C  0.58434409  0.25110385  0.99806138    -0.06800
C1166       C  0.61262760  0.27639191  0.02228795    -0.17900
C1167       C  0.64508545  0.27682752  0.02416766     0.10400
C1168       C  0.64947386  0.25143813  0.00106921    -0.06700
C1169       C  0.62121182  0.22620606  0.97678813    -0.17900
C1170       C  0.58906219  0.22616485  0.97441127     0.10500
S1171       S  0.67960281  0.30831034  0.05830735    -0.32900
S1172       S  0.55600149  0.19486846  0.93900734    -0.32900
H1173       H  0.54484586  0.21842186  0.92581279     0.28500
H1174       H  0.66238878  0.32705406  0.07074935     0.28500
H1175       H  0.60886902  0.29523855  0.04072388     0.19100
H1176       H  0.62459279  0.20703211  0.95845968     0.19100
C1177       C  0.99173562  0.25376751  0.87887253    -0.06800
C1178       C  0.45914622  0.23635720  0.85804958    -0.17900
C1179       C  0.45749986  0.23566917  0.81515366     0.10400
C1180       C  0.98938231  0.25105791  0.79198655    -0.06700
C1181       C  0.02205458  0.26923663  0.81328499    -0.17900
C1182       C  0.02351547  0.27108850  0.85630059     0.10500
S1183       S  0.41367358  0.21532632  0.79282048    -0.32900
S1184       S  0.06609124  0.29388639  0.88218157    -0.32900
H1185       H  0.08732381  0.30562796  0.84677467     0.28500
H1186       H  0.42156268  0.24541318  0.76955524     0.28500
H1187       H  0.43465356  0.22386671  0.87553381     0.19100
H1188       H  0.04670997  0.28174093  0.79625795     0.19100
C1189       C  0.91249603  0.49930262  0.00364602    -0.06800
C1190       C  0.88458369  0.47439889  0.97870369    -0.17900
C1191       C  0.85295377  0.47524802  0.97478332     0.10400
C1192       C  0.84965974  0.00388498  0.00321325    -0.06700
C1193       C  0.87759164  0.02685238  0.02947777    -0.17900
C1194       C  0.90958844  0.02625668  0.03045797     0.10500
S1195       S  0.82011215  0.44400985  0.93914920    -0.32900
S1196       S  0.94236616  0.05428510  0.06813057    -0.32900
H1197       H  0.95352055  0.02976489  0.07697992     0.28500
H1198       H  0.80947530  0.46775497  0.92514667     0.28500
H1199       H  0.88793965  0.45497716  0.96086461     0.19100
H1200       H  0.87399388  0.04447683  0.05040134     0.19100
C1201       C  0.59973719  0.50339221  0.00270972    -0.06800
C1202       C  0.60114232  0.47489707  0.02051869    -0.17900
C1203       C  0.63312620  0.47464000  0.02341924     0.10400
C1204       C  0.66295354  0.00082624  0.00016542    -0.06700
C1205       C  0.65774448  0.01936197  0.96866858    -0.17900
C1206       C  0.62492652  0.01760666  0.96340439     0.10500
S1207       S  0.63236097  0.43890517  0.05162717    -0.32900
S1208       S  0.61994788  0.03963979  0.91983210    -0.32900
H1209       H  0.58397546  0.01420795  0.91288161     0.28500
H1210       H  0.66514958  0.46074329  0.07142606     0.28500
H1211       H  0.57732523  0.45311773  0.03357347     0.19100
H1212       H  0.67905458  0.03440402  0.94720217     0.19100
C1213       C  0.00558815  0.50197744  0.87814057    -0.06800
C1214       C  0.97877919  0.47186087  0.85738526    -0.17900
C1215       C  0.97664934  0.46997876  0.81453574     0.10400
C1216       C  0.00117101  0.49932568  0.79130839    -0.06700
C1217       C  0.51819533  0.02906448  0.80470157    -0.17900
C1218       C  0.52143441  0.03161080  0.84742870     0.10500
S1219       S  0.94319597  0.42864180  0.79151726    -0.32900
S1220       S  0.55399917  0.07434999  0.86827590    -0.32900
H1221       H  0.57018311  0.06044642  0.89310352     0.28500
H1222       H  0.96540720  0.42840000  0.76003060     0.28500
H1223       H  0.95939697  0.44926557  0.87464527     0.19100
H1224       H  0.53493456  0.05236635  0.78669888     0.19100
C1225       C  0.75573013  0.24705575  0.54354864    -0.06800
C1226       C  0.76095948  0.22188959  0.52186415    -0.17900
C1227       C  0.75968605  0.22008763  0.47882440     0.10400
C1228       C  0.75443339  0.24498107  0.45671645    -0.06700
C1229       C  0.74916739  0.27006657  0.47895271    -0.17900
C1230       C  0.74970313  0.27127926  0.52182242     0.10500
S1231       S  0.76246876  0.18393220  0.45456972    -0.32900
S1232       S  0.74234090  0.30427331  0.54720475    -0.32900
H1233       H  0.76652100  0.31132021  0.57931738     0.28500
H1234       H  0.73396674  0.17488460  0.42747189     0.28500
H1235       H  0.76469845  0.20266752  0.53861346     0.19100
H1236       H  0.74498279  0.28929859  0.46290295     0.19100
C1237       C  0.74538024  0.25222857  0.12377355    -0.06800
C1238       C  0.71394273  0.23388531  0.14645886    -0.17900
C1239       C  0.71468511  0.23307754  0.18932544     0.10400
C1240       C  0.74771715  0.25048946  0.21014971    -0.06700
C1241       C  0.77914734  0.26899693  0.18753957    -0.17900
C1242       C  0.77837919  0.27030391  0.14470179     0.10500
S1243       S  0.67256789  0.20912745  0.21534749    -0.32900
S1244       S  0.82048783  0.29499313  0.11884835    -0.32900
H1245       H  0.81113551  0.27225885  0.08443638     0.28500
H1246       H  0.68511128  0.19791356  0.24803374     0.28500
H1247       H  0.68856423  0.22018896  0.13062834     0.19100
H1248       H  0.80449902  0.28269899  0.20343021     0.19100
C1249       C  0.74055775  0.99896842  0.46079840    -0.06800
C1250       C  0.77317818  0.00853325  0.47933435    -0.17900
C1251       C  0.77668306  0.00859857  0.52184260     0.10400
C1252       C  0.74648456  0.99835336  0.54726680    -0.06700
C1253       C  0.71862799  0.48294060  0.52241969    -0.17900
C1254       C  0.71568339  0.48124085  0.47966493     0.10500
S1255       S  0.82077336  0.02250646  0.54056212    -0.32900
S1256       S  0.67168925  0.46147167  0.45765933    -0.32900
H1257       H  0.67884130  0.44592626  0.42338958     0.28500
H1258       H  0.80981452  0.99180946  0.56351721     0.28500
H1259       H  0.79642797  0.01621373  0.46032795     0.19100
H1260       H  0.69445490  0.47300882  0.54024416     0.19100
C1261       C  0.75598973  0.00622545  0.12789123    -0.06800
C1262       C  0.75535677  0.53042048  0.14435491    -0.17900
C1263       C  0.75258531  0.53042199  0.18730032     0.10400
C1264       C  0.74946115  0.00618866  0.21438449    -0.06700
C1265       C  0.75462029  0.98041530  0.19379633    -0.17900
C1266       C  0.75862422  0.98057477  0.15129824     0.10500
S1267       S  0.74864716  0.56580361  0.21233018    -0.32900
S1268       S  0.76885439  0.94834124  0.12924758    -0.32900
H1269       H  0.79329814  0.97181943  0.10049686     0.28500
H1270       H  0.73925677  0.57761638  0.17716599     0.28500
H1271       H  0.75354148  0.55049569  0.12701118     0.19100
H1272       H  0.75602372  0.96001813  0.21099311     0.19100
C1273       C  0.99598527  0.24420315  0.54505618    -0.06800
C1274       C  0.50493054  0.27634831  0.52595106    -0.17900
C1275       C  0.50570129  0.27877879  0.48316670     0.10400
C1276       C  0.99681422  0.24822197  0.45868973    -0.06700
C1277       C  0.98841147  0.21620480  0.47789114    -0.17900
C1278       C  0.98801508  0.21390657  0.52074591     0.10500
S1279       S  0.51926025  0.32175524  0.46192834    -0.32900
S1280       S  0.97718196  0.17174403  0.54251577    -0.32900
H1281       H  0.99805200  0.18589265  0.57807624     0.28500
H1282       H  0.53865962  0.31822375  0.42924824     0.28500
H1283       H  0.51126316  0.29970252  0.54462946     0.19100
H1284       H  0.98181624  0.19271595  0.45936577     0.19100
C1285       C  0.90116948  0.15652335  0.33659611    -0.06800
C1286       C  0.87360869  0.15510262  0.36084068    -0.17900
C1287       C  0.84092612  0.12367132  0.36423876     0.10400
C1288       C  0.83531488  0.09287092  0.34245124    -0.06700
C1289       C  0.86285508  0.09430717  0.31825048    -0.17900
C1290       C  0.89533481  0.12579962  0.31447351     0.10500
S1291       S  0.80826388  0.12434660  0.39815809    -0.32900
S1292       S  0.92706603  0.12551337  0.27873352    -0.32900
H1293       H  0.93780246  0.15947417  0.26328184     0.28500
H1294       H  0.79592861  0.08995866  0.41325451     0.28500
H1295       H  0.87785261  0.17845860  0.37815519     0.19100
H1296       H  0.85853368  0.07103305  0.30068593     0.19100
C1297       C  0.65326922  0.40566023  0.32640901    -0.06800
C1298       C  0.62312164  0.40621875  0.34131825    -0.17900
C1299       C  0.58992313  0.37520277  0.34337408     0.10400
C1300       C  0.58648060  0.34203597  0.33150186    -0.06700
C1301       C  0.61652884  0.34162475  0.31589983    -0.17900
C1302       C  0.64936290  0.37288663  0.31219279     0.10500
S1303       S  0.55366364  0.38004944  0.36292593    -0.32900
S1304       S  0.68443354  0.36903855  0.28709871    -0.32900
H1305       H  0.69612201  0.39992615  0.26380623     0.28500
H1306       H  0.53581306  0.37083023  0.32489292     0.28500
H1307       H  0.62541145  0.43104572  0.35206626     0.19100
H1308       H  0.61426762  0.31679121  0.30523850     0.19100
C1309       C  0.49078648  0.24806071  0.12534400    -0.06800
C1310       C  0.52187316  0.27194612  0.14679866    -0.17900
C1311       C  0.52299335  0.27271769  0.18973513     0.10400
C1312       C  0.49246843  0.24905005  0.21199548    -0.06700
C1313       C  0.96148527  0.22492436  0.19084966    -0.17900
C1314       C  0.96020609  0.22429720  0.14787512     0.10500
S1315       S  0.56402377  0.30453249  0.21446797    -0.32900
S1316       S  0.91835273  0.19384086  0.12373264    -0.32900
H1317       H  0.92089284  0.21785771  0.09369755     0.28500
H1318       H  0.54768155  0.31268899  0.24688348     0.28500
H1319       H  0.54551074  0.29015158  0.12997642     0.19100
H1320       H  0.93800528  0.20671596  0.20790856     0.19100
C1321       C  0.00068309  0.50255827  0.45728464    -0.06800
C1322       C  0.96830060  0.49169315  0.47733771    -0.17900
C1323       C  0.96552783  0.48845058  0.52005626     0.10400
C1324       C  0.99719180  0.99663137  0.53744811    -0.06700
C1325       C  0.52789493  0.99999028  0.51816005    -0.17900
C1326       C  0.53143258  0.00134382  0.47544320     0.10500
S1327       S  0.92196042  0.47283541  0.54150132    -0.32900
S1328       S  0.57328908  0.00917842  0.45461867    -0.32900
H1329       H  0.57504809  0.03278575  0.42442408     0.28500
H1330       H  0.92055087  0.44254337  0.55840508     0.28500
H1331       H  0.94462666  0.48446898  0.45941235     0.19100
H1332       H  0.54960865  0.00208452  0.53649135     0.19100
C1333       C  0.91043646  0.40681423  0.33240125    -0.06800
C1334       C  0.88089206  0.40533937  0.35214155    -0.17900
C1335       C  0.84842437  0.37356875  0.35441322     0.10400
C1336       C  0.84470007  0.34237209  0.33532082    -0.06700
C1337       C  0.87429301  0.34388395  0.31554745    -0.17900
C1338       C  0.90685119  0.37560031  0.31355596     0.10500
S1339       S  0.81376159  0.37446102  0.38424316    -0.32900
S1340       S  0.94197008  0.37450113  0.28487044    -0.32900
H1341       H  0.95379136  0.40741170  0.26598020     0.28500
H1342       H  0.80361489  0.34219139  0.40398655     0.28500
H1343       H  0.88342171  0.42894070  0.36725428     0.19100
H1344       H  0.87184369  0.32031735  0.30044222     0.19100
C1345       C  0.59692946  0.08972571  0.33080254    -0.06800
C1346       C  0.62672288  0.09205595  0.31085958    -0.17900
C1347       C  0.65893794  0.12412631  0.30950023     0.10400
C1348       C  0.66190853  0.15478208  0.32939270    -0.06700
C1349       C  0.63203838  0.15235275  0.34937151    -0.17900
C1350       C  0.59990741  0.12023560  0.35083931     0.10500
S1351       S  0.69434741  0.12399246  0.28036227    -0.32900
S1352       S  0.56460967  0.11965307  0.38090851    -0.32900
H1353       H  0.55391118  0.08640131  0.39844238     0.28500
H1354       H  0.70517433  0.15665822  0.26138761     0.28500
H1355       H  0.62462386  0.06888932  0.29507842     0.19100
H1356       H  0.63401482  0.17541350  0.36527284     0.19100
C1357       C  0.00269186  0.49695658  0.21105818    -0.06800
C1358       C  0.53961447  0.01106630  0.18369962    -0.17900
C1359       C  0.54121117  0.01288235  0.14081154     0.10400
C1360       C  0.00529542  0.49770688  0.12475410    -0.06700
C1361       C  0.97276780  0.48496473  0.14512589    -0.17900
C1362       C  0.97107838  0.48426207  0.18797016     0.10500
S1363       S  0.58459571  0.03396254  0.11731383    -0.32900
S1364       S  0.92774339  0.46600520  0.21120258    -0.32900
H1365       H  0.93510747  0.45030755  0.24420639     0.28500
H1366       H  0.57411118  0.01284507  0.08138906     0.28500
H1367       H  0.56411687  0.02284670  0.20127850     0.19100
H1368       H  0.94852288  0.47560459  0.12749638     0.19100
O1369       O  0.97706267  0.93745000  0.32682028    -0.75100
O1370       O  0.56061280  0.53072492  0.33525392    -0.75100
O1371       O  0.51962257  0.98250715  0.38667701    -0.75200
O1372       O  0.52214641  0.98177664  0.26903544    -0.75200
O1373       O  0.98718940  0.51331207  0.27468551    -0.75100
O1374       O  0.98552492  0.51545040  0.39221066    -0.75100
O1375       O  0.52975173  0.55913446  0.33401020    -0.75100
O1376       O  0.94666692  0.96626111  0.32592663    -0.75200
Ni1377     Ni  0.52191502  0.98100016  0.32791899     1.25400
Ni1378     Ni  0.98535318  0.51556031  0.33338790     1.25400
C1379       C  0.94744520  0.93717268  0.32611674     0.87100
C1380       C  0.55945423  0.55961488  0.33502181     0.87000
C1381       C  0.00417535  0.99750773  0.40532587     0.87100
C1382       C  0.50663083  0.99545032  0.24926994     0.87200
O1383       O  0.96917378  0.68941776  0.33140545    -0.75100
O1384       O  0.55403471  0.78048132  0.33394583    -0.75100
O1385       O  0.51195982  0.73378993  0.39139680    -0.75200
O1386       O  0.51187042  0.73621798  0.27402168    -0.75200
O1387       O  0.97738371  0.76089831  0.27624070    -0.75100
O1388       O  0.98123994  0.76235848  0.39398388    -0.75100
O1389       O  0.52134991  0.80685623  0.33429063    -0.75100
O1390       O  0.93678742  0.71614227  0.33619879    -0.75200
Ni1391     Ni  0.51288698  0.73396035  0.33264202     1.25400
Ni1392     Ni  0.97797451  0.76246551  0.33522682     1.25400
C1393       C  0.93895716  0.68782656  0.33388961     0.87100
C1394       C  0.55169921  0.80877487  0.33406822     0.87000
C1395       C  0.49716352  0.74819704  0.41203854     0.87100
C1396       C  0.49491225  0.74918413  0.25595570     0.87200
O1397       O  0.77809073  0.55560346  0.33830885    -0.75100
O1398       O  0.68363859  0.97224287  0.33381476    -0.75100
O1399       O  0.73100281  0.50933981  0.39248778    -0.75200
O1400       O  0.73611256  0.51553117  0.27530576    -0.75200
O1401       O  0.75945705  0.98816521  0.27914944    -0.75100
O1402       O  0.75506011  0.98465262  0.39591112    -0.75100
O1403       O  0.71308761  0.94249097  0.33425910    -0.75100
O1404       O  0.80651560  0.52476546  0.33514004    -0.75200
Ni1405     Ni  0.73242318  0.51346393  0.33396889     1.25400
Ni1406     Ni  0.75811793  0.98520243  0.33753302     1.25400
C1407       C  0.80698353  0.55442761  0.33816544     0.87100
C1408       C  0.68385868  0.94284790  0.33231199     0.87000
C1409       C  0.74568566  0.49406862  0.41068432     0.87100
C1410       C  0.75112311  0.50107356  0.25514061     0.87200
O1411       O  0.76557434  0.73512367  0.27104611    -0.75100
O1412       O  0.76698978  0.73199282  0.38839426    -0.75100
O1413       O  0.72160932  0.69045333  0.32867300    -0.75200
O1414       O  0.81119866  0.77664405  0.33079439    -0.75200
O1415       O  0.78312737  0.80771209  0.33387236    -0.75100
O1416       O  0.69340229  0.72141630  0.33323319    -0.75100
O1417       O  0.73943411  0.76342478  0.39222490    -0.75100
O1418       O  0.73678841  0.76560682  0.27516650    -0.75200
Ni1419     Ni  0.76735502  0.73244793  0.32957687     1.25400
Ni1420     Ni  0.73724280  0.76570006  0.33380860     1.25400
C1421       C  0.75052272  0.75051036  0.25391127     0.87100
C1422       C  0.75326415  0.74703748  0.40983905     0.87000
C1423       C  0.69277745  0.69166401  0.33027882     0.87100
C1424       C  0.81198747  0.80650135  0.33279080     0.87200
O1425       O  0.53349683  0.96930394  0.99168792    -0.75100
O1426       O  0.94673668  0.97220283  0.99694454    -0.75100
O1427       O  0.98866936  0.97158151  0.93548722    -0.75200
O1428       O  0.99129533  0.96993095  0.05259953    -0.75200
O1429       O  0.52035568  0.52886440  0.06195265    -0.75100
O1430       O  0.51957883  0.53100813  0.94436457    -0.75100
O1431       O  0.97567829  0.52926243  0.00466180    -0.75100
O1432       O  0.56434137  0.53126281  0.00199024    -0.75200
Ni1433     Ni  0.98896763  0.96866131  0.99402912     1.25400
Ni1434     Ni  0.52095427  0.53215317  0.00328716     1.25400
C1435       C  0.56323737  0.99853872  0.99038807     0.87100
C1436       C  0.94798024  0.00221079  0.00110972     0.87000
C1437       C  0.00229213  0.00141221  0.91709055     0.87100
C1438       C  0.00866518  0.99918862  0.07287159     0.87200
O1439       O  0.55865644  0.78239559  0.00143620    -0.75100
O1440       O  0.97075067  0.78277800  0.00207860    -0.75100
O1441       O  0.51432272  0.78174547  0.06079370    -0.75200
O1442       O  0.51501899  0.78352133  0.94326954    -0.75200
O1443       O  0.98516063  0.72427778  0.94078676    -0.75100
O1444       O  0.98386220  0.72244497  0.05835664    -0.75100
O1445       O  0.94090099  0.72347062  0.99956825    -0.75100
O1446       O  0.52871967  0.72307417  0.99921355    -0.75200
Ni1447     Ni  0.51576951  0.78470461  0.00209401     1.25400
Ni1448     Ni  0.98366710  0.72120064  0.99942588     1.25400
C1449       C  0.55815327  0.75265492  0.99955828     0.87100
C1450       C  0.94136073  0.75317353  0.00020060     0.87000
C1451       C  0.49842828  0.75181622  0.07898070     0.87100
C1452       C  0.50007730  0.75418505  0.92272573     0.87200
O1453       O  0.72772854  0.53193321  0.00242022    -0.75100
O1454       O  0.81552389  0.53133107  0.99797966    -0.75100
O1455       O  0.76976022  0.53053555  0.94134282    -0.75200
O1456       O  0.77353074  0.53307590  0.05862616    -0.75200
O1457       O  0.74202380  0.97510104  0.06364058    -0.75100
O1458       O  0.74196225  0.97131622  0.94650146    -0.75100
O1459       O  0.78638986  0.97395605  0.00554585    -0.75100
O1460       O  0.69749435  0.97235786  0.00439943    -0.75200
Ni1461     Ni  0.77270853  0.53385610  0.99999943     1.25400
Ni1462     Ni  0.74094357  0.97111213  0.00514247     1.25400
C1463       C  0.69831788  0.50234588  0.00387244     0.87100
C1464       C  0.81485835  0.50147872  0.99729016     0.87000
C1465       C  0.75473369  0.50057758  0.92204832     0.87100
C1466       C  0.75921266  0.50375557  0.07802372     0.87200
O1467       O  0.72061708  0.78181940  0.00045435    -0.75100
O1468       O  0.80792408  0.78058820  0.99905351    -0.75100
O1469       O  0.76372541  0.78028202  0.94081714    -0.75200
O1470       O  0.76516616  0.78191223  0.05841913    -0.75200
O1471       O  0.73378831  0.72255416  0.05812675    -0.75100
O1472       O  0.73396238  0.72099092  0.94086896    -0.75100
O1473       O  0.77769448  0.72131339  0.99976958    -0.75100
O1474       O  0.69013899  0.72250540  0.99924115    -0.75200
Ni1475     Ni  0.76537829  0.78327307  0.99963883     1.25400
Ni1476     Ni  0.73279015  0.71972415  0.99947172     1.25400
C1477       C  0.69100633  0.75243922  0.00030095     0.87100
C1478       C  0.80724474  0.75079606  0.99998522     0.87000
C1479       C  0.74915165  0.75032290  0.92147016     0.87100
C1480       C  0.74996833  0.75240713  0.07750836     0.87200
O1481       O  0.52494050  0.96772654  0.66240567    -0.75100
O1482       O  0.52903446  0.55696474  0.66698161    -0.75100
O1483       O  0.52911268  0.51365736  0.72577286    -0.75200
O1484       O  0.52633807  0.51091475  0.60846237    -0.75200
O1485       O  0.96605547  0.98113248  0.60193276    -0.75100
O1486       O  0.96435784  0.98113629  0.71971327    -0.75100
O1487       O  0.96985794  0.52853435  0.66857684    -0.75100
O1488       O  0.96571221  0.93742138  0.66053363    -0.75200
Ni1489     Ni  0.52981049  0.51326260  0.66704394     1.25400
Ni1490     Ni  0.96299639  0.98006028  0.66077545     1.25400
C1491       C  0.99557258  0.93825675  0.66214838     0.87100
C1492       C  0.99983478  0.55749156  0.66717462     0.87000
C1493       C  0.99988972  0.49932905  0.74598088     0.87100
C1494       C  0.49641228  0.49679284  0.58957966     0.87200
O1495       O  0.52766582  0.71951380  0.66866514    -0.75100
O1496       O  0.52635077  0.80686357  0.66617766    -0.75100
O1497       O  0.52556711  0.76422474  0.72615968    -0.75200
O1498       O  0.52824790  0.76241729  0.60865264    -0.75200
O1499       O  0.96906389  0.73084401  0.60668694    -0.75100
O1500       O  0.96649491  0.73483786  0.72404958    -0.75100
O1501       O  0.96722096  0.77651517  0.66278115    -0.75100
O1502       O  0.96850167  0.68929039  0.66766309    -0.75200
Ni1503     Ni  0.52908475  0.76430988  0.66749084     1.25400
Ni1504     Ni  0.96571404  0.73178876  0.66525340     1.25400
C1505       C  0.99830071  0.68998728  0.66898559     0.87100
C1506       C  0.99665960  0.80608021  0.66335099     0.87000
C1507       C  0.99559093  0.74991983  0.74455114     0.87100
C1508       C  0.99912101  0.74634807  0.58837123     0.87200
O1509       O  0.72092295  0.52438908  0.66686415    -0.75100
O1510       O  0.71954182  0.93631111  0.66927298    -0.75100
O1511       O  0.72180364  0.98020035  0.73062129    -0.75200
O1512       O  0.71857900  0.98122355  0.61314406    -0.75200
O1513       O  0.78178621  0.51278868  0.60780487    -0.75100
O1514       O  0.78100358  0.51097336  0.72519286    -0.75100
O1515       O  0.77875219  0.96559016  0.66614007    -0.75100
O1516       O  0.78019359  0.55527023  0.66856098    -0.75200
Ni1517     Ni  0.71794265  0.97951784  0.67197861     1.25400
Ni1518     Ni  0.78358589  0.51299168  0.66656513     1.25400
C1519       C  0.75015729  0.55413129  0.66851628     0.87100
C1520       C  0.74897233  0.93633521  0.66655974     0.87000
C1521       C  0.75125735  0.49557329  0.74430484     0.87100
C1522       C  0.75237080  0.49700855  0.58797062     0.87200
O1523       O  0.71853362  0.68553283  0.66398841    -0.75100
O1524       O  0.71810590  0.77334430  0.66612501    -0.75100
O1525       O  0.71922974  0.73003531  0.60624757    -0.75200
O1526       O  0.71767959  0.72930333  0.72376235    -0.75200
O1527       O  0.77688762  0.75939424  0.72484190    -0.75100
O1528       O  0.77856413  0.75908305  0.60754684    -0.75100
O1529       O  0.77741692  0.80319998  0.66656687    -0.75100
O1530       O  0.77783034  0.71530042  0.66601916    -0.75200
Ni1531     Ni  0.71626456  0.72844734  0.66496193     1.25400
Ni1532     Ni  0.77978531  0.76031431  0.66626388     1.25400
C1533       C  0.74821097  0.68592932  0.66465033     0.87100
C1534       C  0.74767536  0.80272638  0.66704162     0.87000
C1535       C  0.74919788  0.74490064  0.58761194     0.87100
C1536       C  0.74706338  0.74419289  0.74374950     0.87200
C1537       C  0.74834969  0.90197999  0.66502886    -0.06800
C1538       C  0.72275387  0.87380721  0.68835101    -0.17900
C1539       C  0.72230839  0.84144549  0.69036953     0.10400
C1540       C  0.74763786  0.83666814  0.66792472    -0.06700
C1541       C  0.77302921  0.86470767  0.64438026    -0.17900
C1542       C  0.77326389  0.89691456  0.64215132     0.10500
S1543       S  0.69000609  0.80819601  0.72386183    -0.32900
S1544       S  0.80395768  0.92928433  0.60693585    -0.32900
H1545       H  0.77801927  0.93634388  0.59137181     0.28500
H1546       H  0.71316649  0.79702219  0.73858216     0.28500
H1547       H  0.70362502  0.87738902  0.70626600     0.19100
H1548       H  0.79202228  0.86103568  0.62628525     0.19100
C1549       C  0.74843298  0.65207369  0.66468512    -0.06800
C1550       C  0.77284717  0.64941049  0.69024762    -0.17900
C1551       C  0.77320843  0.61751439  0.69326675     0.10400
C1552       C  0.74915892  0.58759877  0.66944028    -0.06700
C1553       C  0.72454578  0.59017196  0.64413822    -0.17900
C1554       C  0.72426972  0.62211159  0.64101928     0.10500
S1555       S  0.80374797  0.61630517  0.72957322    -0.32900
S1556       S  0.69406842  0.62347045  0.60435371    -0.32900
H1557       H  0.71795483  0.65813563  0.59115797     0.28500
H1558       H  0.78040802  0.58130030  0.74213932     0.28500
H1559       H  0.79111344  0.67207756  0.70899381     0.19100
H1560       H  0.70632975  0.56752806  0.62532988     0.19100
C1561       C  0.99639770  0.83983148  0.66166552    -0.06800
C1562       C  0.52033198  0.86828874  0.68675034    -0.17900
C1563       C  0.52009957  0.90034082  0.68833575     0.10400
C1564       C  0.99592589  0.90454336  0.66354063    -0.06700
C1565       C  0.97180977  0.87598586  0.63865035    -0.17900
C1566       C  0.97214322  0.84396842  0.63693769     0.10500
S1567       S  0.55013898  0.93404143  0.72414711    -0.32900
S1568       S  0.94249100  0.81037439  0.60080030    -0.32900
H1569       H  0.96688243  0.79955444  0.58885264     0.28500
H1570       H  0.52628217  0.94551940  0.73603378     0.28500
H1571       H  0.53871955  0.86520660  0.70622466     0.19100
H1572       H  0.95337765  0.87906482  0.61925755     0.19100
C1573       C  0.99885545  0.65621759  0.67009784    -0.06800
C1574       C  0.52688817  0.65448020  0.65075590    -0.17900
C1575       C  0.52767904  0.62267346  0.64828066     0.10400
C1576       C  0.00023507  0.59176415  0.66664434    -0.06700
C1577       C  0.97222270  0.59355882  0.68608160    -0.17900
C1578       C  0.97142525  0.62527587  0.68847138     0.10500
S1579       S  0.56333237  0.62312006  0.61912819    -0.32900
S1580       S  0.93572258  0.62472700  0.71754498    -0.32900
H1581       H  0.95786982  0.65766165  0.73717065     0.28500
H1582       H  0.54141504  0.59023425  0.59920864     0.28500
H1583       H  0.54780744  0.67783882  0.63599498     0.19100
H1584       H  0.95117707  0.57024266  0.70077232     0.19100
C1585       C  0.74945130  0.74916736  0.87609659    -0.06800
C1586       C  0.71997614  0.72152154  0.85559269    -0.17900
C1587       C  0.71869926  0.71855634  0.81275976     0.10400
C1588       C  0.74702884  0.74463298  0.78927666    -0.06700
C1589       C  0.77658356  0.77220540  0.80991207    -0.17900
C1590       C  0.77843996  0.77433483  0.85276084     0.10500
S1591       S  0.68105406  0.67980786  0.79050791    -0.32900
S1592       S  0.81939753  0.80849358  0.87550775    -0.32900
H1593       H  0.82044492  0.78635465  0.90581628     0.28500
H1594       H  0.70163114  0.67269298  0.76250819     0.28500
H1595       H  0.69783756  0.70166780  0.87313204     0.19100
H1596       H  0.79880539  0.79212658  0.79255152     0.19100
C1597       C  0.75137720  0.49567553  0.78979835    -0.06800
C1598       C  0.78060367  0.52362984  0.81033795    -0.17900
C1599       C  0.78275507  0.52556574  0.85313298     0.10400
C1600       C  0.75444738  0.49959751  0.87663432    -0.06700
C1601       C  0.72852425  0.96991526  0.86104283    -0.17900
C1602       C  0.72647681  0.96701203  0.81823968     0.10500
S1603       S  0.82326671  0.56080554  0.87548297    -0.32900
S1604       S  0.68925995  0.92761215  0.79640637    -0.32900
H1605       H  0.70958159  0.92268101  0.76593491     0.28500
H1606       H  0.82624959  0.53893596  0.90468698     0.28500
H1607       H  0.80233728  0.54409634  0.79290612     0.19100
H1608       H  0.70704835  0.94959558  0.87890753     0.19100
C1609       C  0.90728074  0.75290783  0.99917975    -0.06800
C1610       C  0.87810860  0.72582917  0.01990666    -0.17900
C1611       C  0.84544690  0.72478258  0.02158841     0.10400
C1612       C  0.84127568  0.75088236  0.00099127    -0.06700
C1613       C  0.87046044  0.77790065  0.98012294    -0.17900
C1614       C  0.90311345  0.77891754  0.97848714     0.10500
S1615       S  0.81104405  0.69037414  0.05214043    -0.32900
S1616       S  0.93749108  0.81270841  0.94733929    -0.34100
H1617       H  0.94907182  0.79014199  0.93060314     0.28500
H1618       H  0.79840526  0.71195900  0.06897930     0.28500
H1619       H  0.88101043  0.70578703  0.03594042     0.19100
H1620       H  0.86753083  0.79780604  0.96379636     0.19100
C1621       C  0.59214710  0.75265564  0.99832519    -0.06800
C1622       C  0.62028489  0.77743454  0.02309113    -0.17900
C1623       C  0.65275997  0.77787282  0.02462561     0.10400
C1624       C  0.65726839  0.75296109  0.00068554    -0.06700
C1625       C  0.62911509  0.72816900  0.97595904    -0.17900
C1626       C  0.59696904  0.72816628  0.97390437     0.10500
S1627       S  0.68721006  0.80877521  0.05924138    -0.32900
S1628       S  0.56407430  0.69766670  0.93780798    -0.32900
H1629       H  0.55313751  0.72160940  0.92543288     0.28500
H1630       H  0.66998488  0.82734769  0.07231315     0.28500
H1631       H  0.61642164  0.79593941  0.04209086     0.19100
H1632       H  0.63260947  0.70937524  0.95699170     0.19100
C1633       C  0.99912659  0.75454662  0.87712759    -0.06800
C1634       C  0.46851237  0.72823763  0.85709360    -0.17900
C1635       C  0.46591926  0.72630083  0.81412877     0.10400
C1636       C  0.99507270  0.75122924  0.79024570    -0.06700
C1637       C  0.02546521  0.77785939  0.81071708    -0.17900
C1638       C  0.02784303  0.77986922  0.85367941     0.10500
S1639       S  0.42564803  0.69112102  0.79075403    -0.32900
S1640       S  0.06846515  0.81368029  0.87782117    -0.32900
H1641       H  0.08749994  0.82898836  0.84166993     0.28500
H1642       H  0.40746747  0.67514491  0.82711926     0.28500
H1643       H  0.44643535  0.70911815  0.87524993     0.19100
H1644       H  0.04766557  0.79716623  0.79288417     0.19100
C1645       C  0.91430859  0.00291359  0.00371700    -0.06800
C1646       C  0.88637691  0.98008671  0.97746404    -0.17900
C1647       C  0.85447406  0.98061072  0.97652821     0.10400
C1648       C  0.84860227  0.50105858  0.99705272    -0.06700
C1649       C  0.87644208  0.52585240  0.02207524    -0.17900
C1650       C  0.90796490  0.52491762  0.02615491     0.10500
S1651       S  0.82174204  0.95217799  0.93900961    -0.32900
S1652       S  0.94038219  0.55580858  0.06241872    -0.32900
H1653       H  0.95031930  0.53163579  0.07680515     0.28500
H1654       H  0.81066763  0.97657871  0.92949451     0.28500
H1655       H  0.88985028  0.96242916  0.95645326     0.19100
H1656       H  0.87307583  0.54526724  0.03992444     0.19100
C1657       C  0.59680392  0.99767010  0.99081743    -0.06800
C1658       C  0.60185583  0.97868457  0.02191995    -0.17900
C1659       C  0.63466028  0.98041837  0.02721912     0.10400
C1660       C  0.66443289  0.50262098  0.00610332    -0.06700
C1661       C  0.66317199  0.53136971  0.98900387    -0.17900
C1662       C  0.63158074  0.53237965  0.98769767     0.10500
S1663       S  0.63936500  0.95774756  0.07046985    -0.32900
S1664       S  0.63375764  0.57080299  0.96475127    -0.32900
H1665       H  0.62836886  0.58360959  0.00252349     0.28500
H1666       H  0.67508087  0.98323515  0.07868800     0.28500
H1667       H  0.58056069  0.96362311  0.04339127     0.19100
H1668       H  0.68695881  0.55317389  0.97592870     0.19100
C1669       C  0.00003681  0.00142906  0.87147342    -0.06800
C1670       C  0.97541305  0.96959854  0.85119535    -0.17900
C1671       C  0.97250653  0.96709000  0.80836045     0.10400
C1672       C  0.99430698  0.99723888  0.78468289    -0.06700
C1673       C  0.52805968  0.52930001  0.81180311    -0.17900
C1674       C  0.53083807  0.53078609  0.85464391     0.10500
S1675       S  0.94160345  0.92428459  0.78602115    -0.32900
S1676       S  0.56832096  0.56954569  0.87697813    -0.32900
H1677       H  0.57658418  0.54962319  0.90367306     0.28500
H1678       H  0.96348844  0.92656755  0.75288453     0.28500
H1679       H  0.95846317  0.94611006  0.86876773     0.19100
H1680       H  0.54733839  0.55178280  0.79429520     0.19100
C1681       C  0.75009508  0.74574581  0.54242122    -0.06800
C1682       C  0.77259323  0.73631765  0.52161028    -0.17900
C1683       C  0.77377219  0.73553517  0.47868055     0.10400
C1684       C  0.75259924  0.74543227  0.45550930    -0.06700
C1685       C  0.73022115  0.75501983  0.47679403    -0.17900
C1686       C  0.72889647  0.75547576  0.51963199     0.10500
S1687       S  0.80323260  0.72211610  0.45599507    -0.32900
S1688       S  0.70087907  0.77039052  0.54331440    -0.32900
H1689       H  0.72458881  0.78938261  0.57556249     0.28500
H1690       H  0.77519394  0.69169024  0.43700663     0.28500
H1691       H  0.78889279  0.72873654  0.53899918     0.19100
H1692       H  0.71372984  0.76270233  0.46001660     0.19100
C1693       C  0.75090138  0.75254409  0.12258619    -0.06800
C1694       C  0.71853550  0.73425284  0.14365465    -0.17900
C1695       C  0.71755321  0.73403703  0.18653803     0.10400
C1696       C  0.74969190  0.75143742  0.20894248    -0.06700
C1697       C  0.78208079  0.76922023  0.18794037    -0.17900
C1698       C  0.78309317  0.77015019  0.14506350     0.10500
S1699       S  0.67478847  0.70947457  0.21089578    -0.32900
S1700       S  0.82634681  0.79334012  0.12130319    -0.32900
H1701       H  0.81718065  0.77239205  0.08538192     0.28500
H1702       H  0.67977481  0.73771078  0.23697442     0.28500
H1703       H  0.69379360  0.72053344  0.12656166     0.19100
H1704       H  0.80680189  0.78239118  0.20512709     0.19100
C1705       C  0.74659958  0.49403435  0.45565234    -0.06800
C1706       C  0.77975040  0.50796449  0.47488231    -0.17900
C1707       C  0.78285733  0.50947204  0.51761684     0.10400
C1708       C  0.75184435  0.49671069  0.54224652    -0.06700
C1709       C  0.71387880  0.98959667  0.52843287    -0.17900
C1710       C  0.71059467  0.98978564  0.48569734     0.10500
S1711       S  0.82728168  0.52821200  0.53783190    -0.32900
S1712       S  0.66734007  0.97701604  0.46498098    -0.32900
H1713       H  0.67017469  0.95871741  0.43043762     0.28500
H1714       H  0.81906905  0.49797356  0.56072325     0.28500
H1715       H  0.80357937  0.51802923  0.45632146     0.19100
H1716       H  0.69052694  0.98227412  0.54705163     0.19100
C1717       C  0.75989703  0.50450053  0.12327361    -0.06800
C1718       C  0.75169290  0.03259963  0.14827294    -0.17900
C1719       C  0.74879004  0.03318232  0.19123298     0.10400
C1720       C  0.75415653  0.50356356  0.20976270    -0.06700
C1721       C  0.75974621  0.47836045  0.18840442    -0.17900
C1722       C  0.76326281  0.47892945  0.14583572     0.10500
S1723       S  0.74561356  0.06925212  0.21560863    -0.32900
S1724       S  0.77369378  0.44728914  0.12245666    -0.32900
H1725       H  0.79683796  0.47087361  0.09285677     0.28500
H1726       H  0.74971416  0.08877824  0.18000473     0.28500
H1727       H  0.75011076  0.05251986  0.13035731     0.19100
H1728       H  0.76172995  0.45801365  0.20499140     0.19100
C1729       C  0.99994583  0.74626051  0.54331264    -0.06800
C1730       C  0.51281738  0.77873221  0.52360814    -0.17900
C1731       C  0.51240926  0.78017961  0.48079047     0.10400
C1732       C  0.99881463  0.74845095  0.45699528    -0.06700
C1733       C  0.98596985  0.71591927  0.47696453    -0.17900
C1734       C  0.98628521  0.71447596  0.51983247     0.10500
S1735       S  0.53039957  0.82336812  0.45819193    -0.32900
S1736       S  0.96913710  0.67143853  0.54274812    -0.32900
H1737       H  0.99227810  0.68348228  0.57669570     0.28500
H1738       H  0.54569727  0.81568054  0.42424984     0.28500
H1739       H  0.52306439  0.80315338  0.54160543     0.19100
H1740       H  0.97531256  0.69143436  0.45903334     0.19100
C1741       C  0.90591436  0.65301024  0.33517176    -0.06800
C1742       C  0.87846302  0.64963494  0.36109359    -0.17900
C1743       C  0.84661964  0.61735782  0.36432114     0.10400
C1744       C  0.84144395  0.58780376  0.34017848    -0.06700
C1745       C  0.86922861  0.59082791  0.31515994    -0.17900
C1746       C  0.90115530  0.62309524  0.31201838     0.10500
S1747       S  0.81443163  0.61524613  0.40113177    -0.32900
S1748       S  0.93356476  0.62482568  0.27586200    -0.32900
H1749       H  0.94276561  0.65859202  0.26098050     0.28500
H1750       H  0.80281366  0.58003278  0.41272282     0.28500
H1751       H  0.88215075  0.67215109  0.37976075     0.19100
H1752       H  0.86543023  0.56833133  0.29637724     0.19100
C1753       C  0.64977617  0.90889847  0.32943743    -0.06800
C1754       C  0.61902457  0.90781985  0.34494144    -0.17900
C1755       C  0.58641574  0.87595383  0.34611529     0.10400
C1756       C  0.58469371  0.84388506  0.33274438    -0.06700
C1757       C  0.61532594  0.84524313  0.31631251    -0.17900
C1758       C  0.64731998  0.87729795  0.31331448     0.10500
S1759       S  0.54823730  0.87724210  0.36649493    -0.32900
S1760       S  0.68314949  0.87607036  0.28644763    -0.32900
H1761       H  0.69417634  0.90809140  0.26569866     0.28500
H1762       H  0.56214365  0.91408954  0.36253038     0.28500
H1763       H  0.62069388  0.93194580  0.35722243     0.19100
H1764       H  0.61412324  0.82122377  0.30431886     0.19100
C1765       C  0.49673971  0.75139280  0.12424687    -0.06800
C1766       C  0.52827985  0.77165847  0.14663238    -0.17900
C1767       C  0.52821563  0.77189528  0.18958636     0.10400
C1768       C  0.49602173  0.75115086  0.21085805    -0.06700
C1769       C  0.96434571  0.73142676  0.18838922    -0.17900
C1770       C  0.96433489  0.73152463  0.14541112     0.10500
S1771       S  0.56980008  0.79992433  0.21561440    -0.32900
S1772       S  0.92204054  0.70696414  0.11963158    -0.32900
H1773       H  0.93031830  0.73248511  0.08921363     0.28500
H1774       H  0.55475175  0.81090089  0.24681533     0.28500
H1775       H  0.55314940  0.78739250  0.13053583     0.19100
H1776       H  0.93951215  0.71578009  0.20458270     0.19100
C1777       C  0.00311618  0.99818519  0.45073658    -0.06800
C1778       C  0.97259245  0.99490026  0.46992643    -0.17900
C1779       C  0.96933351  0.99436937  0.51283092     0.10400
C1780       C  0.99623757  0.49729275  0.54389080    -0.06700
C1781       C  0.52857700  0.50810603  0.52329074    -0.17900
C1782       C  0.53117003  0.51099946  0.48065065     0.10500
S1783       S  0.93014802  0.99242335  0.53515837    -0.32900
S1784       S  0.57459152  0.52712910  0.45824722    -0.32900
H1785       H  0.56988907  0.54596752  0.42659557     0.28500
H1786       H  0.91347419  0.99231787  0.49826787     0.28500
H1787       H  0.95105852  0.99252851  0.45107362     0.19100
H1788       H  0.55244759  0.51485527  0.54051211     0.19100
C1789       C  0.91333377  0.90317907  0.32690063    -0.06800
C1790       C  0.88415669  0.90339193  0.34542271    -0.17900
C1791       C  0.85135787  0.87232414  0.34918322     0.10400
C1792       C  0.84678241  0.83989065  0.33286578    -0.06700
C1793       C  0.87606086  0.83954440  0.31462926    -0.17900
C1794       C  0.90905470  0.87067874  0.31117070     0.10500
S1795       S  0.81733052  0.87596627  0.37717039    -0.32900
S1796       S  0.94375468  0.86707534  0.28471263    -0.32900
H1797       H  0.95564405  0.89841486  0.26233200     0.28500
H1798       H  0.80652275  0.84482984  0.39967730     0.28500
H1799       H  0.88716488  0.92790273  0.35842575     0.19100
H1800       H  0.87299939  0.81498831  0.30172190     0.19100
C1801       C  0.59310597  0.59379997  0.33468939    -0.06800
C1802       C  0.62097913  0.59593087  0.31064096    -0.17900
C1803       C  0.65315443  0.62776224  0.30724676     0.10400
C1804       C  0.65829629  0.65823098  0.32950135    -0.06700
C1805       C  0.63027135  0.65624505  0.35325525    -0.17900
C1806       C  0.59792881  0.62437590  0.35643013     0.10500
S1807       S  0.68566916  0.62792621  0.27236576    -0.32900
S1808       S  0.56486162  0.62420582  0.39037553    -0.32900
H1809       H  0.55264741  0.58974999  0.40504443     0.28500
H1810       H  0.69710525  0.66221655  0.25758010     0.28500
H1811       H  0.61726904  0.57280901  0.29321959     0.19100
H1812       H  0.63402007  0.67935302  0.37072441     0.19100
C1813       C  0.00667242  0.99475685  0.20412255    -0.06800
C1814       C  0.53513160  0.50906088  0.19054134    -0.17900
C1815       C  0.53674071  0.50943859  0.14764565     0.10400
C1816       C  0.00921808  0.99801907  0.11787004    -0.06700
C1817       C  0.97648745  0.98133925  0.13832354    -0.17900
C1818       C  0.97484514  0.97953878  0.18108056     0.10500
S1819       S  0.57951496  0.52486728  0.12391260    -0.32900
S1820       S  0.93134350  0.95700969  0.20425166    -0.32900
H1821       H  0.94105994  0.94332827  0.23729731     0.28500
H1822       H  0.56645255  0.50090403  0.09040858     0.28500
H1823       H  0.55945201  0.51868240  0.20809145     0.19100
H1824       H  0.95195830  0.96979258  0.12080062     0.19100
loop_ 
_geom_bond_atom_site_label_1 
_geom_bond_atom_site_label_2 
_geom_bond_distance 
_geom_bond_site_symmetry_2 
_ccdc_geom_bond_type 
O1           C11   1.281       .  A
O1         Ni921   1.915       .  S
O2           C12   1.281       .  A
O2         Ni465   1.911   1_545  S
O3          C925   1.280       .  A
O3           Ni9   1.912       .  S
O4           C14   1.280       .  A
O4           Ni9   1.913       .  S
O5         C1382   1.280   1_545  A
O5          Ni10   1.912       .  S
O6          C469   1.281   1_545  A
O6          Ni10   1.914       .  S
O7           C12   1.280       .  A
O7         Ni922   1.910   1_455  S
O8           C11   1.280       .  A
O8         Ni466   1.909       .  S
Ni9         O913   1.916   1_455  S
Ni9         O458   1.910       .  S
Ni9       Ni1378   2.390   1_455  S
Ni10        O919   1.910       .  S
Ni10        O464   1.906   1_545  S
Ni10      Ni1377   2.389   1_545  S
C11         C421   1.477       .  S
C12         C433   1.474       .  S
C13         O915   1.280       .  A
C13         O462   1.281       .  A
C13         C409   1.473       .  S
C14        O1373   1.281   1_455  A
C14        C1357   1.471       .  S
O15          C25   1.282       .  A
O15        Ni935   1.919       .  S
O16          C26   1.284       .  A
O16         Ni23   1.921       .  S
O17          C27   1.280   1_455  A
O17         Ni23   1.916       .  S
O18          C28   1.279   1_455  A
O18         Ni23   1.916       .  S
O19         C940   1.282       .  A
O19         Ni24   1.923       .  S
O20         C939   1.283       .  A
O20         Ni24   1.923       .  S
O21          C26   1.278       .  A
O21        Ni936   1.908   1_455  S
O22          C25   1.279       .  A
O22         Ni24   1.906       .  S
Ni23        O927   1.919   1_455  S
Ni23       Ni936   2.388   1_455  S
Ni24        O933   1.908       .  S
Ni24       Ni935   2.388       .  S
C25         C373   1.475       .  S
C26         C388   1.488       .  S
C27         O932   1.283       .  A
C27        C1276   1.479       .  S
C28         O931   1.282       .  A
C28         C400   1.471       .  S
O29          C39   1.281       .  A
O29         Ni37   1.915       .  S
O30          C40   1.282       .  A
O30        Ni493   1.915       .  S
O31          C41   1.282   1_545  A
O31         Ni37   1.923       .  S
O32          C42   1.281       .  A
O32         Ni37   1.920       .  S
O33         C498   1.281       .  A
O33         Ni38   1.908       .  S
O34         C497   1.279       .  A
O34         Ni38   1.908       .  S
O35          C40   1.281       .  A
O35         Ni38   1.917       .  S
O36          C39   1.279       .  A
O36        Ni494   1.906   1_545  S
Ni37        O486   1.913   1_545  S
Ni37       Ni494   2.388   1_545  S
Ni38        O492   1.911       .  S
Ni38       Ni493   2.387       .  S
C39         C376   1.473       .  S
C40         C385   1.486       .  S
C41         O490   1.280       .  A
C41         C337   1.473       .  S
C42         O489   1.281   1_545  A
C42         C352   1.486       .  S
O43          C53   1.283       .  A
O43         Ni51   1.924       .  S
O44          C54   1.282       .  A
O44         Ni51   1.923       .  S
O45          C55   1.279       .  A
O45         Ni51   1.909       .  S
O46          C56   1.279       .  A
O46         Ni51   1.907       .  S
O47          C56   1.282       .  A
O47         Ni52   1.918       .  S
O48          C55   1.282       .  A
O48         Ni52   1.912       .  S
O49          C54   1.281       .  A
O49         Ni52   1.913       .  S
O50          C53   1.279       .  A
O50         Ni52   1.913       .  S
Ni51        Ni52   2.387       .  S
C53         C328   1.472       .  S
C54         C316   1.489       .  S
C55         C436   1.477       .  S
C56         C424   1.480       .  S
O57          C67   1.284       .  A
O57        Ni977   1.922   1_455  S
O58          C68   1.282       .  A
O58         Ni65   1.921       .  S
O59          C69   1.281       .  A
O59         Ni65   1.914   1_556  S
O60          C70   1.279       .  A
O60         Ni65   1.913       .  S
O61        C1438   1.281   1_545  A
O61         Ni66   1.920   1_554  S
O62        C1437   1.281       .  A
O62         Ni66   1.919       .  S
O63         C524   1.281       .  A
O63        Ni978   1.920   1_554  S
O64         C523   1.281   1_545  A
O64         Ni66   1.920       .  S
Ni65        O969   1.922       .  S
Ni65      Ni1434   2.387       .  S
Ni66        O975   1.920   1_456  S
Ni66      Ni1433   2.387   1_445  S
C67         O520   1.277       .  A
C67         C289   1.482       .  S
C68         O519   1.279       .  A
C68         C277   1.477       .  S
C69        O1430   1.282       .  A
C69         C301   1.487       .  S
C70        O1429   1.281       .  A
C70         C448   1.467       .  S
O71          C81   1.281   1_554  A
O71         Ni79   1.913       .  S
O72          C82   1.281       .  A
O72        Ni991   1.916       .  S
O73          C83   1.282   1_455  A
O73         Ni79   1.918       .  S
O74          C84   1.280   1_455  A
O74         Ni79   1.917   1_556  S
O75         C996   1.281       .  A
O75         Ni80   1.917   1_556  S
O76         C995   1.282       .  A
O76         Ni80   1.920       .  S
O77          C82   1.280       .  A
O77         Ni80   1.910       .  S
O78          C81   1.281       .  A
O78        Ni992   1.915   1_456  S
Ni79        O984   1.917   1_455  S
Ni79       Ni992   2.390   1_455  S
Ni80        O990   1.915   1_554  S
Ni80       Ni991   2.390       .  S
C81         C253   1.477       .  S
C82         C241   1.475       .  S
C83         O988   1.282       .  A
C83         C397   1.480       .  S
C84         O987   1.281       .  A
C84        C1177   1.472       .  S
O85          C95   1.282       .  A
O85         Ni93   1.922       .  S
O86          C96   1.282       .  A
O86         Ni93   1.923       .  S
O87          C97   1.281       .  A
O87         Ni93   1.917   1_556  S
O88          C98   1.282       .  A
O88         Ni93   1.920       .  S
O89         C554   1.281       .  A
O89         Ni94   1.913       .  S
O90         C553   1.281       .  A
O90         Ni94   1.915   1_556  S
O91         C552   1.279       .  A
O91         Ni94   1.910   1_556  S
O92         C551   1.279       .  A
O92         Ni94   1.909       .  S
Ni93       Ni550   2.388   1_545  S
Ni94       Ni549   2.388       .  S
C95         O548   1.280   1_545  A
C95         C292   1.475       .  S
C96         O547   1.281   1_545  A
C96         C280   1.478       .  S
C97         O546   1.281   1_545  A
C97         C232   1.480   1_545  S
C98         O545   1.280   1_545  A
C98         C349   1.479       .  S
O99         C109   1.280       .  A
O99        Ni107   1.914       .  S
O100        C110   1.281   1_556  A
O100       Ni107   1.910   1_556  S
O101        C111   1.281       .  A
O101       Ni107   1.915   1_556  S
O102        C112   1.280       .  A
O102       Ni107   1.916       .  S
O103        C112   1.282       .  A
O103       Ni108   1.920       .  S
O104        C111   1.282       .  A
O104       Ni108   1.920   1_556  S
O105        C110   1.280       .  A
O105       Ni108   1.914       .  S
O106        C109   1.281       .  A
O106       Ni108   1.916       .  S
Ni107      Ni108   2.388       .  S
C109        C256   1.477       .  S
C110        C244   1.476       .  S
C111        C217   1.487       .  S
C112        C325   1.474       .  S
O113       C1035   1.281   1_455  A
O113       Ni577   1.915       .  S
O114       C1036   1.280   1_455  A
O114       Ni121   1.911       .  S
O115       C1037   1.280   1_445  A
O115       Ni121   1.909       .  S
O116        C126   1.281   1_445  A
O116       Ni121   1.914       .  S
O117       C1494   1.280       .  A
O117       Ni122   1.916       .  S
O118        C581   1.282       .  A
O118       Ni122   1.918       .  S
O119        C124   1.281       .  A
O119       Ni578   1.916   1_545  S
O120        C123   1.280       .  A
O120       Ni122   1.913       .  S
Ni121       O569   1.913   1_545  S
Ni121     Ni1490   2.388   1_445  S
Ni122       O575   1.911       .  S
Ni122     Ni1489   2.385       .  S
C123       O1025   1.281       .  A
C123        C196   1.477       .  S
C124       O1026   1.280       .  A
C124        C208   1.478       .  S
C125       O1027   1.280   1_565  A
C125        O574   1.282       .  A
C125        C760   1.476       .  S
C126       O1485   1.282       .  A
C126       C1324   1.488       .  S
O127       C1049   1.281   1_455  A
O127       Ni135   1.915       .  S
O128       C1050   1.280   1_455  A
O128       Ni135   1.909       .  S
O129       C1051   1.283   1_455  A
O129       Ni135   1.918       .  S
O130       C1052   1.280   1_455  A
O130       Ni135   1.917       .  S
O131        C140   1.280       .  A
O131       Ni136   1.919       .  S
O132        C139   1.280       .  A
O132       Ni136   1.917       .  S
O133        C138   1.281       .  A
O133       Ni136   1.917       .  S
O134        C137   1.280       .  A
O134       Ni136   1.914       .  S
Ni135     Ni1048   2.386   1_455  S
Ni136     Ni1047   2.386       .  S
C137       O1039   1.281       .  A
C137        C205   1.477       .  S
C138       O1040   1.280       .  A
C138        C193   1.478       .  S
C139       O1041   1.283       .  A
C139        C268   1.495       .  S
C140       O1042   1.280       .  A
C140        C361   1.469       .  S
O141        C151   1.280       .  A
O141       Ni605   1.909   1_545  S
O142        C152   1.282       .  A
O142       Ni149   1.915       .  S
O143        C609   1.280       .  A
O143       Ni149   1.914       .  S
O144        C610   1.282       .  A
O144       Ni149   1.912       .  S
O145        C154   1.279   1_545  A
O145       Ni150   1.911       .  S
O146        C153   1.281   1_545  A
O146       Ni150   1.912       .  S
O147        C152   1.281       .  A
O147       Ni606   1.917       .  S
O148        C151   1.281       .  A
O148       Ni150   1.914       .  S
Ni149       O597   1.915       .  S
Ni149      Ni606   2.385       .  S
Ni150       O603   1.918   1_545  S
Ni150      Ni605   2.386   1_545  S
C151        C184   1.473       .  S
C152        C169   1.483       .  S
C153        O599   1.282       .  A
C153        C229   1.482       .  S
C154        O600   1.283       .  A
C154        C340   1.490       .  S
O155        C165   1.280       .  A
O155       Ni163   1.913       .  S
O156        C166   1.281       .  A
O156       Ni163   1.913       .  S
O157        C167   1.280       .  A
O157       Ni163   1.917       .  S
O158        C168   1.281       .  A
O158       Ni163   1.916       .  S
O159        C168   1.282       .  A
O159       Ni164   1.918       .  S
O160        C167   1.281       .  A
O160       Ni164   1.921       .  S
O161        C166   1.281       .  A
O161       Ni164   1.916       .  S
O162        C165   1.280       .  A
O162       Ni164   1.911       .  S
Ni163      Ni164   2.389       .  S
C165        C181   1.475       .  S
C166        C172   1.480       .  S
C167        C313   1.470       .  S
C168        C220   1.481       .  S
C169        C170   1.404       .  A
C169        C174   1.416       .  A
C170        C171   1.397       .  A
C170        H179   1.084       .  S
C171        C172   1.414       .  A
C171        S175   1.803       .  S
C172        C173   1.405       .  A
C173        C174   1.400       .  A
C173        H180   1.084       .  S
C174        S176   1.801       .  S
S175        H178   1.408       .  S
S176        H177   1.406       .  S
C181        C182   1.405       .  A
C181        C186   1.414       .  A
C182        C183   1.397       .  A
C182        H191   1.084       .  S
C183        C184   1.412       .  A
C183        S187   1.804       .  S
C184        C185   1.404       .  A
C185        C186   1.396       .  A
C185        H192   1.084       .  S
C186        S188   1.804       .  S
S187        H190   1.407       .  S
S188        H189   1.408       .  S
C193        C198   1.415       .  A
C193       C1106   1.404       .  A
C194        C195   1.396       .  A
C194       C1105   1.404   1_455  A
C194        H203   1.084       .  S
C195       C1108   1.413   1_455  A
C195        S199   1.804       .  S
C196        C197   1.404       .  A
C196       C1107   1.413       .  A
C197        C198   1.399       .  A
C197        H204   1.084       .  S
C198        S200   1.803       .  S
S199        H202   1.407       .  S
S200        H201   1.408       .  S
C205        C210   1.414       .  A
C205       C1118   1.403       .  A
C206        C207   1.397       .  A
C206       C1117   1.403   1_455  A
C206        H215   1.084       .  S
C207       C1120   1.414   1_455  A
C207        S211   1.804       .  S
C208        C209   1.405       .  A
C208       C1119   1.414       .  A
C209        C210   1.400       .  A
C209        H216   1.084       .  S
C210        S212   1.804       .  S
S211        H214   1.408       .  S
S212        H213   1.407       .  S
C217        C218   1.407       .  A
C217        C222   1.418       .  A
C218        C219   1.402       .  A
C218        H227   1.084       .  S
C219        C220   1.415       .  A
C219        S223   1.804       .  S
C220        C221   1.402       .  A
C221        C222   1.398       .  A
C221        H228   1.084       .  S
C222        S224   1.803       .  S
S223        H226   1.408       .  S
S224        H225   1.407       .  S
C229        C230   1.406   1_565  A
C229        C690   1.415       .  A
C230        C231   1.399       .  A
C230        H239   1.084       .  S
C231        C232   1.415   1_545  A
C231        S235   1.804       .  S
C232        C689   1.404       .  A
C233        C234   1.400       .  A
C233        C688   1.405       .  A
C233        H240   1.084       .  S
C234        C685   1.417       .  A
C234        S236   1.803       .  S
S235        H238   1.407       .  S
S236        H237   1.408       .  S
C241        C242   1.403       .  A
C241        C246   1.413   1_554  A
C242        C243   1.398       .  A
C242        H251   1.083       .  S
C243        C244   1.416       .  A
C243        S247   1.804       .  S
C244        C245   1.404   1_554  A
C245        C246   1.397       .  A
C245        H252   1.084       .  S
C246        S248   1.803       .  S
S247        H250   1.405       .  S
S248        H249   1.407       .  S
C253        C254   1.404   1_556  A
C253        C258   1.414       .  A
C254        C255   1.402       .  A
C254        H263   1.083       .  S
C255        C256   1.413       .  A
C255        S259   1.809       .  S
C256        C257   1.403   1_554  A
C257        C258   1.398       .  A
C257        H264   1.084       .  S
C258        S260   1.804       .  S
S259        H262   1.407       .  S
S260        H261   1.407       .  S
C265        C996   1.472       .  S
C265        C270   1.407       .  A
C265       C1178   1.399       .  A
C266        C267   1.399       .  A
C266       C1177   1.399       .  A
C266        H275   1.084       .  S
C267       C1180   1.422       .  A
C267        S271   1.802       .  S
C268        C269   1.411       .  A
C268       C1179   1.422       .  A
C269        C270   1.403       .  A
C269        H276   1.082       .  S
C270        S272   1.808       .  S
S271        H274   1.408       .  S
S272        H273   1.406       .  S
C277        C278   1.403   1_554  A
C277        C738   1.415       .  A
C278        C279   1.399       .  A
C278        H287   1.084       .  S
C279        C736   1.414       .  A
C279        S283   1.804       .  S
C280        C281   1.404       .  A
C280        C735   1.414   1_544  A
C281        C282   1.403       .  A
C281        H288   1.084       .  S
C282        C733   1.415       .  A
C282        S284   1.803       .  S
S283        H286   1.408       .  S
S284        H285   1.407       .  S
C289        C290   1.405       .  A
C289        C750   1.417   1_554  A
C290        C291   1.398       .  A
C290        H299   1.084       .  S
C291        C748   1.416       .  A
C291        S295   1.804       .  S
C292        C293   1.403   1_554  A
C292        C747   1.413   1_545  A
C293        C294   1.400       .  A
C293        H300   1.084       .  S
C294        C745   1.412   1_545  A
C294        S296   1.800       .  S
S295        H298   1.408       .  S
S296        H297   1.407       .  S
C301        C302   1.407       .  A
C301       C1674   1.417       .  A
C302        C303   1.399       .  A
C302        H311   1.084       .  S
C303        C304   1.413       .  A
C303        S307   1.803       .  S
C304        C581   1.479       .  S
C304       C1673   1.403       .  A
C305        C306   1.398       .  A
C305       C1672   1.401   1_445  A
C305        H312   1.084       .  S
C306       C1669   1.420       .  A
C306        S308   1.802       .  S
S307        H310   1.407       .  S
S308        H309   1.401       .  S
C313        C314   1.401       .  A
C313        C318   1.408       .  A
C314        C315   1.403       .  A
C314        H323   1.084       .  S
C315        C316   1.420       .  A
C315        S319   1.802       .  S
C316        C317   1.408       .  A
C317        C318   1.397       .  A
C317        H324   1.083       .  S
C318        S320   1.803       .  S
S319        H322   1.408       .  S
S320        H321   1.405       .  S
C325        C326   1.401       .  A
C325        C330   1.416       .  A
C326        C327   1.399       .  A
C326        H335   1.084       .  S
C327        C328   1.414       .  A
C327        S331   1.804       .  S
C328        C329   1.401       .  A
C329        C330   1.400       .  A
C329        H336   1.084       .  S
C330        S332   1.804       .  S
S331        H334   1.400       .  S
S332        H333   1.401       .  S
C337        C338   1.399   1_565  A
C337        C798   1.410       .  A
C338        C339   1.395       .  A
C338        H347   1.085       .  S
C339        C340   1.421   1_545  A
C339        S343   1.802       .  S
C340        C797   1.411       .  A
C341        C342   1.398       .  A
C341        C796   1.411       .  A
C341        H348   1.083       .  S
C342        C793   1.407       .  A
C342        S344   1.805       .  S
S343        H346   1.400   1_545  S
S344        H345   1.406       .  S
C349        C354   1.412   1_545  A
C349        C806   1.404       .  A
C350        C351   1.404       .  A
C350        C805   1.404       .  A
C350        H359   1.083       .  S
C351        C808   1.418       .  A
C351        S355   1.809       .  S
C352        C353   1.405   1_545  A
C352        C807   1.418       .  A
C353        C354   1.395       .  A
C353        H360   1.084       .  S
C354        S356   1.804       .  S
S355        H358   1.407       .  S
S356        H357   1.408       .  S
C361        C366   1.410       .  A
C361       C1274   1.401       .  A
C362        C363   1.399       .  A
C362       C1273   1.401   1_455  A
C362        H371   1.084       .  S
C363       C1276   1.414   1_455  A
C363        S367   1.803       .  S
C364        C939   1.479       .  S
C364        C365   1.406       .  A
C364       C1275   1.414       .  A
C365        C366   1.401       .  A
C365        H372   1.084       .  S
C366        S368   1.805       .  S
S367        H370   1.407       .  S
S368        H369   1.405       .  S
C373        C374   1.406       .  A
C373        C378   1.412       .  A
C374        C375   1.398       .  A
C374        H383   1.084       .  S
C375        C376   1.412       .  A
C375        S379   1.804       .  S
C376        C377   1.404       .  A
C377        C378   1.396       .  A
C377        H384   1.084       .  S
C378        S380   1.803       .  S
S379        H382   1.407       .  S
S380        H381   1.407       .  S
C385        C386   1.405       .  A
C385        C390   1.416       .  A
C386        C387   1.398       .  A
C386        H395   1.084       .  S
C387        C388   1.418       .  A
C387        S391   1.801       .  S
C388        C389   1.406       .  A
C389        C390   1.399       .  A
C389        H396   1.084       .  S
C390        S392   1.803       .  S
S391        H394   1.408       .  S
S392        H393   1.408       .  S
C397        C398   1.405   1_655  A
C397       C1314   1.416       .  A
C398        C399   1.400       .  A
C398        H407   1.084       .  S
C399        C400   1.411   1_455  A
C399        S403   1.803       .  S
C400       C1313   1.401       .  A
C401        C402   1.401       .  A
C401       C1312   1.401       .  A
C401        H408   1.084       .  S
C402       C1309   1.416       .  A
C402        S404   1.802       .  S
S403        H406   1.405       .  S
S404        H405   1.406       .  S
C409        C410   1.401       .  A
C409       C1782   1.410       .  A
C410        C411   1.400       .  A
C410        H419   1.084       .  S
C411        C868   1.421       .  A
C411        S415   1.801       .  S
C412       C1038   1.488       .  S
C412        C867   1.417       .  A
C412       C1325   1.407       .  A
C413        C414   1.399       .  A
C413       C1324   1.407   1_445  A
C413        H420   1.084       .  S
C414       C1777   1.413   1_545  A
C414        S416   1.804       .  S
S415        H418   1.408       .  S
S416        H417   1.408       .  S
C421        C422   1.404       .  A
C421        C426   1.414       .  A
C422        C423   1.397       .  A
C422        H431   1.084       .  S
C423        C424   1.414       .  A
C423        S427   1.803       .  S
C424        C425   1.406       .  A
C425        C426   1.397       .  A
C425        H432   1.084       .  S
C426        S428   1.804       .  S
S427        H430   1.408       .  S
S428        H429   1.406       .  S
C433        C434   1.403       .  A
C433        C438   1.413       .  A
C434        C435   1.396       .  A
C434        H443   1.084       .  S
C435        C436   1.417       .  A
C435        S439   1.804       .  S
C436        C437   1.404       .  A
C437        C438   1.396       .  A
C437        H444   1.084       .  S
C438        S440   1.804       .  S
S439        H442   1.405       .  S
S440        H441   1.408       .  S
C445        C926   1.471       .  S
C445        C450   1.413       .  A
C445       C1814   1.404       .  A
C446        C447   1.401       .  A
C446       C1813   1.403   1_545  A
C446        H455   1.084       .  S
C447       C1816   1.413   1_545  A
C447        S451   1.804       .  S
C448        C449   1.400       .  A
C448       C1815   1.411       .  A
C449        C450   1.398       .  A
C449        H456   1.084       .  S
C450        S452   1.804       .  S
S451        H454   1.404       .  S
S452        H453   1.404       .  S
O457        C467   1.281       .  A
O457      Ni1377   1.916       .  S
O458        C468   1.281       .  A
O459       C1381   1.282       .  A
O459       Ni465   1.919       .  S
O460        C470   1.281       .  A
O460       Ni465   1.920       .  S
O461        C926   1.281       .  A
O461       Ni466   1.917       .  S
O462       Ni466   1.917       .  S
O463        C468   1.280       .  A
O463      Ni1378   1.914   1_455  S
O464        C467   1.280       .  A
Ni465      O1369   1.916   1_455  S
Ni465      Ni922   2.389   1_465  S
Ni466      O1375   1.914       .  S
Ni466      Ni921   2.390       .  S
C467        C877   1.479       .  S
C468        C889   1.473       .  S
C469       O1371   1.282       .  A
C469        C865   1.481       .  S
C470        O917   1.280   1_465  A
C470       C1813   1.470       .  S
O471        C481   1.281       .  A
O471      Ni1391   1.916       .  S
O472        C482   1.282       .  A
O472       Ni479   1.913       .  S
O473        C483   1.280   1_455  A
O473       Ni479   1.915       .  S
O474        C484   1.280   1_455  A
O474       Ni479   1.917       .  S
O475       C1396   1.282       .  A
O475       Ni480   1.922       .  S
O476       C1395   1.282       .  A
O476       Ni480   1.921       .  S
O477        C482   1.278       .  A
O477      Ni1392   1.908   1_455  S
O478        C481   1.280       .  A
O478       Ni480   1.910       .  S
Ni479      O1383   1.916   1_455  S
Ni479     Ni1392   2.388   1_455  S
Ni480      O1389   1.908       .  S
Ni480     Ni1391   2.388       .  S
C481        C829   1.475       .  S
C482        C844   1.481       .  S
C483       O1388   1.282       .  A
C483       C1732   1.473       .  S
C484       O1387   1.282       .  A
C484        C856   1.473       .  S
O485        C495   1.281       .  A
O485       Ni493   1.914       .  S
O486        C496   1.281       .  A
O487        C497   1.281       .  A
O487       Ni493   1.917       .  S
O488        C498   1.281       .  A
O488       Ni493   1.918       .  S
O489       Ni494   1.908       .  S
O490       Ni494   1.906       .  S
O491        C496   1.279       .  A
O491       Ni494   1.908       .  S
O492        C495   1.280       .  A
C495        C832   1.474       .  S
C496        C841   1.478       .  S
C497        C793   1.467       .  S
C498        C808   1.485       .  S
O499        C509   1.281       .  A
O499       Ni507   1.918       .  S
O500        C510   1.280       .  A
O500       Ni507   1.918       .  S
O501        C511   1.280       .  A
O501       Ni507   1.909       .  S
O502        C512   1.280       .  A
O502       Ni507   1.911       .  S
O503        C512   1.281       .  A
O503       Ni508   1.913       .  S
O504        C511   1.280       .  A
O504       Ni508   1.913       .  S
O505        C510   1.282       .  A
O505       Ni508   1.914       .  S
O506        C509   1.279       .  A
O506       Ni508   1.911       .  S
Ni507      Ni508   2.386       .  S
C509        C784   1.468       .  S
C510        C772   1.490       .  S
C511        C892   1.474       .  S
C512        C880   1.481       .  S
O513        C523   1.281       .  A
O513      Ni1433   1.921   1_455  S
O514        C524   1.282   1_566  A
O514       Ni521   1.917       .  S
O515        C525   1.282   1_565  A
O515       Ni521   1.915       .  S
O516        C526   1.280       .  A
O516       Ni521   1.911   1_554  S
O517        C982   1.281       .  A
O517       Ni522   1.919       .  S
O518        C981   1.282       .  A
O518       Ni522   1.921   1_556  S
O519      Ni1434   1.907       .  S
O520       Ni522   1.904       .  S
Ni521      O1425   1.921       .  S
Ni521      Ni978   2.387   1_565  S
Ni522      O1431   1.907   1_455  S
Ni522      Ni977   2.387   1_455  S
C523        C745   1.477       .  S
C524        C733   1.480       .  S
C525        O974   1.281       .  A
C525        C757   1.491       .  S
C526        O973   1.281   1_565  A
C526        C904   1.469       .  S
O527        C537   1.281   1_554  A
O527       Ni535   1.915       .  S
O528        C538   1.281       .  A
O528      Ni1447   1.916       .  S
O529        C539   1.281   1_455  A
O529       Ni535   1.918       .  S
O530        C540   1.281       .  A
O530       Ni535   1.917   1_556  S
O531       C1452   1.282       .  A
O531       Ni536   1.917       .  S
O532       C1451   1.282       .  A
O532       Ni536   1.921   1_554  S
O533        C538   1.280   1_556  A
O533       Ni536   1.909       .  S
O534        C537   1.281       .  A
O534      Ni1448   1.915   1_455  S
Ni535      O1440   1.916   1_455  S
Ni535     Ni1448   2.389   1_454  S
Ni536      O1446   1.916       .  S
Ni536     Ni1447   2.389   1_556  S
C537        C709   1.476       .  S
C538        C697   1.475   1_554  S
C539       O1444   1.282       .  A
C539        C853   1.477       .  S
C540       O1443   1.282   1_455  A
C540       C1633   1.482   1_455  S
O541        C551   1.282       .  A
O541       Ni549   1.914       .  S
O542        C552   1.282       .  A
O542       Ni549   1.917   1_556  S
O543        C553   1.281       .  A
O543       Ni549   1.915   1_556  S
O544        C554   1.280       .  A
O544       Ni549   1.913       .  S
O545       Ni550   1.910       .  S
O546       Ni550   1.912   1_556  S
O547       Ni550   1.915       .  S
O548       Ni550   1.915       .  S
C551        C748   1.479       .  S
C552        C736   1.475       .  S
C553        C688   1.480       .  S
C554        C805   1.475       .  S
O555        C565   1.280       .  A
O555       Ni563   1.913   1_554  S
O556        C566   1.280   1_556  A
O556       Ni563   1.909       .  S
O557        C567   1.282       .  A
O557       Ni563   1.918       .  S
O558        C568   1.281       .  A
O558       Ni563   1.917   1_554  S
O559        C568   1.280       .  A
O559       Ni564   1.914   1_554  S
O560        C567   1.280       .  A
O560       Ni564   1.912       .  S
O561        C566   1.281   1_556  A
O561       Ni564   1.917       .  S
O562        C565   1.281   1_556  A
O562       Ni564   1.916       .  S
Ni563      Ni564   2.389       .  S
C565        C712   1.477       .  S
C566        C700   1.477       .  S
C567        C673   1.479       .  S
C568        C781   1.470       .  S
O569       C1491   1.280   1_455  A
O570       C1492   1.280   1_455  A
O570       Ni577   1.915       .  S
O571       C1493   1.281   1_455  A
O571       Ni577   1.914       .  S
O572        C582   1.282   1_455  A
O572       Ni577   1.913       .  S
O573       C1038   1.282       .  A
O573       Ni578   1.922       .  S
O574       Ni578   1.922       .  S
O575        C580   1.281       .  A
O576        C579   1.280       .  A
O576       Ni578   1.913       .  S
Ni577     Ni1034   2.385   1_455  S
Ni578     Ni1033   2.388   1_565  S
C579       O1481   1.280       .  A
C579        C652   1.473       .  S
C580       O1482   1.280       .  A
C580        C664   1.480       .  S
C581       O1483   1.281       .  A
C582       O1029   1.280       .  A
C582       C1780   1.491       .  S
O583       C1505   1.281   1_455  A
O583       Ni591   1.916       .  S
O584       C1506   1.280   1_455  A
O584       Ni591   1.911       .  S
O585       C1507   1.283   1_455  A
O585       Ni591   1.917       .  S
O586       C1508   1.281   1_455  A
O586       Ni591   1.918       .  S
O587        C596   1.280       .  A
O587       Ni592   1.915       .  S
O588        C595   1.281       .  A
O588       Ni592   1.918       .  S
O589        C594   1.281       .  A
O589       Ni592   1.913       .  S
O590        C593   1.280       .  A
O590       Ni592   1.912       .  S
Ni591     Ni1504   2.388   1_455  S
Ni592     Ni1503   2.388       .  S
C593       O1495   1.281       .  A
C593        C661   1.480       .  S
C594       O1496   1.280       .  A
C594        C649   1.473       .  S
C595       O1497   1.283       .  A
C595        C724   1.490       .  S
C596       O1498   1.281       .  A
C596        C817   1.469       .  S
O597        C607   1.281       .  A
O598        C608   1.280       .  A
O598       Ni605   1.913       .  S
O599       Ni605   1.919       .  S
O600       Ni605   1.920       .  S
O601        C610   1.280       .  A
O601       Ni606   1.917       .  S
O602        C609   1.282       .  A
O602       Ni606   1.915       .  S
O603        C608   1.282       .  A
O604        C607   1.280       .  A
O604       Ni606   1.914       .  S
C607        C640   1.475       .  S
C608        C625   1.479       .  S
C609        C685   1.483       .  S
C610        C796   1.490       .  S
O611        C621   1.281       .  A
O611       Ni619   1.914       .  S
O612        C622   1.280       .  A
O612       Ni619   1.911       .  S
O613        C623   1.281       .  A
O613       Ni619   1.918       .  S
O614        C624   1.281       .  A
O614       Ni619   1.917       .  S
O615        C624   1.281       .  A
O615       Ni620   1.912       .  S
O616        C623   1.280       .  A
O616       Ni620   1.914       .  S
O617        C622   1.282       .  A
O617       Ni620   1.916       .  S
O618        C621   1.281       .  A
O618       Ni620   1.913       .  S
Ni619      Ni620   2.389       .  S
C621        C637   1.475       .  S
C622        C628   1.475       .  S
C623        C769   1.474       .  S
C624        C676   1.484       .  S
C625        C626   1.404       .  A
C625        C630   1.413       .  A
C626        C627   1.399       .  A
C626        H635   1.084       .  S
C627        C628   1.414       .  A
C627        S631   1.803       .  S
C628        C629   1.402       .  A
C629        C630   1.397       .  A
C629        H636   1.084       .  S
C630        S632   1.798       .  S
S631        H634   1.407       .  S
S632        H633   1.407       .  S
C637        C638   1.403       .  A
C637        C642   1.413       .  A
C638        C639   1.398       .  A
C638        H647   1.084       .  S
C639        C640   1.414       .  A
C639        S643   1.804       .  S
C640        C641   1.404       .  A
C641        C642   1.398       .  A
C641        H648   1.084       .  S
C642        S644   1.804       .  S
S643        H646   1.407       .  S
S644        H645   1.408       .  S
C649       C1562   1.403       .  A
C649        C654   1.413       .  A
C650       C1561   1.403   1_455  A
C650        C651   1.397       .  A
C650        H659   1.084       .  S
C651       C1564   1.414   1_455  A
C651        S655   1.804       .  S
C652       C1563   1.414       .  A
C652        C653   1.403       .  A
C653        C654   1.398       .  A
C653        H660   1.084       .  S
C654        S656   1.804       .  S
S655        H658   1.406       .  S
S656        H657   1.407       .  S
C661       C1574   1.405       .  A
C661        C666   1.414       .  A
C662       C1573   1.405   1_455  A
C662        C663   1.399       .  A
C662        H671   1.084       .  S
C663       C1576   1.416       .  A
C663        S667   1.803       .  S
C664       C1575   1.416       .  A
C664        C665   1.404       .  A
C665        C666   1.396       .  A
C665        H672   1.084       .  S
C666        S668   1.802       .  S
S667        H670   1.408       .  S
S668        H669   1.407       .  S
C673        C674   1.404       .  A
C673        C678   1.413       .  A
C674        C675   1.399       .  A
C674        H683   1.084       .  S
C675        C676   1.416       .  A
C675        S679   1.803       .  S
C676        C677   1.406       .  A
C677        C678   1.398       .  A
C677        H684   1.084       .  S
C678        S680   1.803       .  S
S679        H682   1.408       .  S
S680        H681   1.407       .  S
C685        C686   1.405       .  A
C686        C687   1.397       .  A
C686        H695   1.084       .  S
C687        C688   1.414       .  A
C687        S691   1.803       .  S
C689        C690   1.398       .  A
C689        H696   1.084       .  S
C690        S692   1.803       .  S
S691        H694   1.408       .  S
S692        H693   1.407       .  S
C697        C698   1.404   1_556  A
C697        C702   1.413       .  A
C698        C699   1.397       .  A
C698        H707   1.083       .  S
C699        C700   1.415       .  A
C699        S703   1.804       .  S
C700        C701   1.405   1_554  A
C701        C702   1.397       .  A
C701        H708   1.083       .  S
C702        S704   1.804       .  S
S703        H706   1.405       .  S
S704        H705   1.408       .  S
C709        C710   1.403   1_556  A
C709        C714   1.414       .  A
C710        C711   1.402       .  A
C710        H719   1.083       .  S
C711        C712   1.413       .  A
C711        S715   1.809       .  S
C712        C713   1.403   1_554  A
C713        C714   1.398       .  A
C713        H720   1.084       .  S
C714        S716   1.804       .  S
S715        H718   1.407       .  S
S716        H717   1.407       .  S
C721       C1452   1.482       .  S
C721       C1634   1.403       .  A
C721        C726   1.412       .  A
C722       C1633   1.403       .  A
C722        C723   1.403       .  A
C722        H731   1.083       .  S
C723       C1636   1.418       .  A
C723        S727   1.810       .  S
C724       C1635   1.418       .  A
C724        C725   1.408       .  A
C725        C726   1.403       .  A
C725        H732   1.082       .  S
C726        S728   1.809       .  S
S727        H730   1.406       .  S
S728        H729   1.407       .  S
C733        C734   1.402   1_544  A
C734        C735   1.398       .  A
C734        H743   1.084       .  S
C735        S739   1.804       .  S
C736        C737   1.402   1_556  A
C737        C738   1.397       .  A
C737        H744   1.084       .  S
C738        S740   1.804       .  S
S739        H742   1.405       .  S
S740        H741   1.408       .  S
C745        C746   1.403   1_556  A
C746        C747   1.400       .  A
C746        H755   1.084       .  S
C747        S751   1.804       .  S
C748        C749   1.402   1_554  A
C749        C750   1.395       .  A
C749        H756   1.084       .  S
C750        S752   1.799       .  S
S751        H754   1.407       .  S
S752        H753   1.408   1_556  S
C757        C758   1.410   1_545  A
C757       C1218   1.420       .  A
C758        C759   1.400       .  A
C758        H767   1.083       .  S
C759        C760   1.411       .  A
C759        S763   1.804       .  S
C760       C1217   1.401   1_565  A
C761       C1216   1.403       .  A
C761        C762   1.400       .  A
C761        H768   1.084       .  S
C762       C1213   1.417       .  A
C762        S764   1.801       .  S
S763        H766   1.406       .  S
S764        H765   1.406       .  S
C769        C770   1.402       .  A
C769        C774   1.410       .  A
C770        C771   1.400       .  A
C770        H779   1.084       .  S
C771        C772   1.420       .  A
C771        S775   1.800       .  S
C772        C773   1.409       .  A
C773        C774   1.397       .  A
C773        H780   1.084       .  S
C774        S776   1.804       .  S
S775        H778   1.408       .  S
S776        H777   1.407       .  S
C781        C782   1.403       .  A
C781        C786   1.414       .  A
C782        C783   1.398       .  A
C782        H791   1.084       .  S
C783        C784   1.411       .  A
C783        S787   1.801       .  S
C784        C785   1.401       .  A
C785        C786   1.399       .  A
C785        H792   1.084       .  S
C786        S788   1.805       .  S
S787        H790   1.405       .  S
S788        H789   1.401       .  S
C793        C794   1.399       .  A
C794        C795   1.398       .  A
C794        H803   1.085       .  S
C795        C796   1.421       .  A
C795        S799   1.801       .  S
C797        C798   1.402       .  A
C797        H804   1.083       .  S
C798        S800   1.804       .  S
S799        H802   1.404       .  S
S800        H801   1.407       .  S
C805        C810   1.410       .  A
C806        C807   1.406       .  A
C806        H815   1.083       .  S
C807        S811   1.809       .  S
C808        C809   1.406       .  A
C809        C810   1.394       .  A
C809        H816   1.084       .  S
C810        S812   1.804       .  S
S811        H814   1.407       .  S
S812        H813   1.408       .  S
C817       C1730   1.401       .  A
C817        C822   1.411       .  A
C818       C1729   1.401   1_455  A
C818        C819   1.399       .  A
C818        H827   1.084       .  S
C819       C1732   1.413   1_455  A
C819        S823   1.801       .  S
C820       C1395   1.473       .  S
C820       C1731   1.413       .  A
C820        C821   1.403       .  A
C821        C822   1.400       .  A
C821        H828   1.084       .  S
C822        S824   1.804       .  S
S823        H826   1.406       .  S
S824        H825   1.406       .  S
C829        C830   1.404       .  A
C829        C834   1.413       .  A
C830        C831   1.397       .  A
C830        H839   1.084       .  S
C831        C832   1.412       .  A
C831        S835   1.804       .  S
C832        C833   1.404       .  A
C833        C834   1.398       .  A
C833        H840   1.084       .  S
C834        S836   1.803       .  S
S835        H838   1.408       .  S
S836        H837   1.408       .  S
C841        C842   1.404       .  A
C841        C846   1.414       .  A
C842        C843   1.401       .  A
C842        H851   1.083       .  S
C843        C844   1.417       .  A
C843        S847   1.808       .  S
C844        C845   1.405       .  A
C845        C846   1.395       .  A
C845        H852   1.084       .  S
C846        S848   1.804       .  S
S847        H850   1.407       .  S
S848        H849   1.408       .  S
C853        C854   1.403   1_655  A
C853       C1770   1.415       .  A
C854        C855   1.400       .  A
C854        H863   1.084       .  S
C855        C856   1.413   1_455  A
C855        S859   1.802       .  S
C856       C1769   1.401       .  A
C857       C1768   1.401       .  A
C857        C858   1.401       .  A
C857        H864   1.084       .  S
C858       C1765   1.415       .  A
C858        S860   1.802       .  S
S859        H862   1.405       .  S
S860        H861   1.406       .  S
C865        C866   1.404       .  A
C865       C1326   1.413   1_565  A
C866        C867   1.404       .  A
C866        H875   1.083       .  S
C867        S871   1.809       .  S
C868       C1494   1.491       .  S
C868       C1781   1.409       .  A
C869       C1780   1.409   1_455  A
C869        C870   1.397       .  A
C869        H876   1.083       .  S
C870       C1321   1.410       .  A
C870        S872   1.805       .  S
S871        H874   1.407       .  S
S872        H873   1.405       .  S
C877        C878   1.404       .  A
C877        C882   1.415       .  A
C878        C879   1.394       .  A
C878        H887   1.084       .  S
C879        C880   1.414       .  A
C879        S883   1.803       .  S
C880        C881   1.407       .  A
C881        C882   1.399       .  A
C881        H888   1.084       .  S
C882        S884   1.804       .  S
S883        H886   1.408       .  S
S884        H885   1.406       .  S
C889        C890   1.402       .  A
C889        C894   1.414       .  A
C890        C891   1.395       .  A
C890        H899   1.084       .  S
C891        C892   1.414       .  A
C891        S895   1.804       .  S
C892        C893   1.404       .  A
C893        C894   1.399       .  A
C893        H900   1.084       .  S
C894        S896   1.804       .  S
S895        H898   1.407       .  S
S896        H897   1.406       .  S
C901       C1382   1.470       .  S
C901       C1358   1.403   1_565  A
C901        C906   1.412       .  A
C902       C1357   1.404       .  A
C902        C903   1.399       .  A
C902        H911   1.084       .  S
C903       C1360   1.411       .  A
C903        S907   1.803       .  S
C904       C1359   1.413   1_565  A
C904        C905   1.401       .  A
C905        C906   1.397       .  A
C905        H912   1.084       .  S
C906        S908   1.804       .  S
S907        H910   1.405       .  S
S908        H909   1.404       .  S
O913        C923   1.281       .  A
O914        C924   1.281       .  A
O914      Ni1377   1.911   1_545  S
O915       Ni921   1.912       .  S
O916        C926   1.280       .  A
O916       Ni921   1.913       .  S
O917       Ni922   1.912       .  S
O918       C1381   1.281   1_645  A
O918       Ni922   1.914       .  S
O919        C924   1.280       .  A
O920        C923   1.280       .  A
O920      Ni1378   1.909       .  S
Ni921      O1370   1.910       .  S
Ni922      O1376   1.906   1_545  S
C923       C1333   1.477       .  S
C924       C1345   1.474       .  S
C925       O1374   1.281   1_455  A
C925       C1321   1.473       .  S
O927        C937   1.282       .  A
O928        C938   1.284       .  A
O928       Ni935   1.921       .  S
O929        C939   1.280       .  A
O929       Ni935   1.916       .  S
O930        C940   1.279       .  A
O930       Ni935   1.916       .  S
O931       Ni936   1.923       .  S
O932       Ni936   1.923       .  S
O933        C938   1.278       .  A
O934        C937   1.279       .  A
O934       Ni936   1.906       .  S
C937       C1285   1.475       .  S
C938       C1300   1.488       .  S
C940       C1312   1.471       .  S
O941        C951   1.281       .  A
O941       Ni949   1.915       .  S
O942        C952   1.282       .  A
O942      Ni1405   1.915       .  S
O943        C953   1.282   1_545  A
O943       Ni949   1.923       .  S
O944        C954   1.281       .  A
O944       Ni949   1.920       .  S
O945       C1410   1.281       .  A
O945       Ni950   1.908       .  S
O946       C1409   1.279       .  A
O946       Ni950   1.908       .  S
O947        C952   1.281       .  A
O947       Ni950   1.917       .  S
O948        C951   1.279       .  A
O948      Ni1406   1.906   1_545  S
Ni949      O1398   1.913   1_545  S
Ni949     Ni1406   2.388   1_545  S
Ni950      O1404   1.911       .  S
Ni950     Ni1405   2.387       .  S
C951       C1288   1.473       .  S
C952       C1297   1.486       .  S
C953       O1402   1.280       .  A
C953       C1249   1.473       .  S
C954       O1401   1.281   1_545  A
C954       C1264   1.486       .  S
O955        C965   1.283       .  A
O955       Ni963   1.924       .  S
O956        C966   1.282       .  A
O956       Ni963   1.923       .  S
O957        C967   1.279       .  A
O957       Ni963   1.909       .  S
O958        C968   1.280       .  A
O958       Ni963   1.907       .  S
O959        C968   1.282       .  A
O959       Ni964   1.919       .  S
O960        C967   1.282       .  A
O960       Ni964   1.912       .  S
O961        C966   1.281       .  A
O961       Ni964   1.913       .  S
O962        C965   1.279       .  A
O962       Ni964   1.913       .  S
Ni963      Ni964   2.387       .  S
C965       C1240   1.472       .  S
C966       C1228   1.489       .  S
C967       C1348   1.477       .  S
C968       C1336   1.481       .  S
O969        C979   1.284       .  A
O970        C980   1.282       .  A
O970       Ni977   1.921       .  S
O971        C981   1.281   1_655  A
O971       Ni977   1.914   1_556  S
O972        C982   1.279   1_655  A
O972       Ni977   1.913       .  S
O973       Ni978   1.920   1_554  S
O974       Ni978   1.919       .  S
O975       C1436   1.281       .  A
O976       C1435   1.281   1_545  A
O976       Ni978   1.920       .  S
C979       O1432   1.277       .  A
C979       C1201   1.482       .  S
C980       O1431   1.279       .  A
C980       C1189   1.477       .  S
C981       C1213   1.487       .  S
C982       C1360   1.467       .  S
O983        C993   1.281   1_554  A
O983       Ni991   1.913       .  S
O984        C994   1.282       .  A
O985        C995   1.282       .  A
O985       Ni991   1.919       .  S
O986        C996   1.281       .  A
O986       Ni991   1.917   1_556  S
O987       Ni992   1.917   1_556  S
O988       Ni992   1.920       .  S
O989        C994   1.280       .  A
O989       Ni992   1.910       .  S
O990        C993   1.281       .  A
C993       C1165   1.477       .  S
C994       C1153   1.475       .  S
C995       C1309   1.480       .  S
O997       C1007   1.282       .  A
O997      Ni1005   1.922       .  S
O998       C1008   1.282       .  A
O998      Ni1005   1.923       .  S
O999       C1009   1.281       .  A
O999      Ni1005   1.917   1_556  S
O1000      C1010   1.282       .  A
O1000     Ni1005   1.920       .  S
O1001      C1466   1.281       .  A
O1001     Ni1006   1.913       .  S
O1002      C1465   1.281       .  A
O1002     Ni1006   1.915   1_556  S
O1003      C1464   1.279       .  A
O1003     Ni1006   1.910   1_556  S
O1004      C1463   1.279       .  A
O1004     Ni1006   1.909       .  S
Ni1005    Ni1462   2.388   1_545  S
Ni1006    Ni1461   2.388   1_554  S
C1007      O1460   1.280   1_545  A
C1007      C1204   1.475       .  S
C1008      O1459   1.281   1_545  A
C1008      C1192   1.478       .  S
C1009      O1458   1.281   1_545  A
C1009      C1144   1.480   1_545  S
C1010      O1457   1.280   1_545  A
C1010      C1261   1.479       .  S
O1011      C1021   1.280       .  A
O1011     Ni1019   1.914       .  S
O1012      C1022   1.281   1_556  A
O1012     Ni1019   1.910   1_556  S
O1013      C1023   1.281       .  A
O1013     Ni1019   1.915   1_556  S
O1014      C1024   1.280       .  A
O1014     Ni1019   1.916       .  S
O1015      C1024   1.282       .  A
O1015     Ni1020   1.920       .  S
O1016      C1023   1.282       .  A
O1016     Ni1020   1.921   1_556  S
O1017      C1022   1.280       .  A
O1017     Ni1020   1.915       .  S
O1018      C1021   1.281       .  A
O1018     Ni1020   1.916       .  S
Ni1019    Ni1020   2.388       .  S
C1021      C1168   1.477       .  S
C1022      C1156   1.477       .  S
C1023      C1129   1.487       .  S
C1024      C1237   1.474       .  S
O1025     Ni1489   1.915       .  S
O1026     Ni1033   1.911       .  S
O1027     Ni1033   1.909       .  S
O1028      C1038   1.281   1_545  A
O1028     Ni1033   1.914       .  S
O1029     Ni1034   1.916       .  S
O1030      C1493   1.282       .  A
O1030     Ni1034   1.918       .  S
O1031      C1036   1.281       .  A
O1031     Ni1490   1.916   1_545  S
O1032      C1035   1.280       .  A
O1032     Ni1034   1.913       .  S
Ni1033     O1481   1.912   1_545  S
Ni1034     O1487   1.911       .  S
C1035      C1108   1.477       .  S
C1036      C1120   1.478       .  S
C1037      O1486   1.282       .  A
C1037      C1672   1.476       .  S
O1039     Ni1047   1.915       .  S
O1040     Ni1047   1.909       .  S
O1041     Ni1047   1.917       .  S
O1042     Ni1047   1.917       .  S
O1043      C1052   1.280       .  A
O1043     Ni1048   1.919       .  S
O1044      C1051   1.280       .  A
O1044     Ni1048   1.917       .  S
O1045      C1050   1.281       .  A
O1045     Ni1048   1.917       .  S
O1046      C1049   1.280       .  A
O1046     Ni1048   1.914       .  S
C1049      C1117   1.477       .  S
C1050      C1105   1.478       .  S
C1051      C1180   1.495       .  S
C1052      C1273   1.469       .  S
O1053      C1063   1.280       .  A
O1053     Ni1517   1.909   1_545  S
O1054      C1064   1.282       .  A
O1054     Ni1061   1.915       .  S
O1055      C1521   1.280       .  A
O1055     Ni1061   1.914       .  S
O1056      C1522   1.282       .  A
O1056     Ni1061   1.912       .  S
O1057      C1066   1.279   1_545  A
O1057     Ni1062   1.911       .  S
O1058      C1065   1.281   1_545  A
O1058     Ni1062   1.913       .  S
O1059      C1064   1.281       .  A
O1059     Ni1518   1.917       .  S
O1060      C1063   1.281       .  A
O1060     Ni1062   1.914       .  S
Ni1061     O1509   1.915       .  S
Ni1061    Ni1518   2.384       .  S
Ni1062     O1515   1.918   1_545  S
Ni1062    Ni1517   2.386   1_545  S
C1063      C1096   1.473       .  S
C1064      C1081   1.483       .  S
C1065      O1511   1.282       .  A
C1065      C1141   1.482       .  S
C1066      O1512   1.283       .  A
C1066      C1252   1.490       .  S
O1067      C1077   1.280       .  A
O1067     Ni1075   1.913       .  S
O1068      C1078   1.281       .  A
O1068     Ni1075   1.913       .  S
O1069      C1079   1.280       .  A
O1069     Ni1075   1.917       .  S
O1070      C1080   1.281       .  A
O1070     Ni1075   1.917       .  S
O1071      C1080   1.282       .  A
O1071     Ni1076   1.918       .  S
O1072      C1079   1.281       .  A
O1072     Ni1076   1.921       .  S
O1073      C1078   1.281       .  A
O1073     Ni1076   1.916       .  S
O1074      C1077   1.280       .  A
O1074     Ni1076   1.911       .  S
Ni1075    Ni1076   2.389       .  S
C1077      C1093   1.475       .  S
C1078      C1084   1.481       .  S
C1079      C1225   1.470       .  S
C1080      C1132   1.481       .  S
C1081      C1082   1.404       .  A
C1081      C1086   1.416       .  A
C1082      C1083   1.397       .  A
C1082      H1091   1.084       .  S
C1083      C1084   1.414       .  A
C1083      S1087   1.803       .  S
C1084      C1085   1.405       .  A
C1085      C1086   1.400       .  A
C1085      H1092   1.084       .  S
C1086      S1088   1.801       .  S
S1087      H1090   1.408       .  S
S1088      H1089   1.406       .  S
C1093      C1094   1.405       .  A
C1093      C1098   1.414       .  A
C1094      C1095   1.397       .  A
C1094      H1103   1.084       .  S
C1095      C1096   1.412       .  A
C1095      S1099   1.804       .  S
C1096      C1097   1.404       .  A
C1097      C1098   1.396       .  A
C1097      H1104   1.084       .  S
C1098      S1100   1.804       .  S
S1099      H1102   1.407       .  S
S1100      H1101   1.408       .  S
C1105      C1110   1.415       .  A
C1106      C1107   1.396       .  A
C1106      H1115   1.084       .  S
C1107      S1111   1.804       .  S
C1108      C1109   1.404       .  A
C1109      C1110   1.399       .  A
C1109      H1116   1.084       .  S
C1110      S1112   1.803       .  S
S1111      H1114   1.407       .  S
S1112      H1113   1.408       .  S
C1117      C1122   1.414       .  A
C1118      C1119   1.397       .  A
C1118      H1127   1.084       .  S
C1119      S1123   1.804       .  S
C1120      C1121   1.405       .  A
C1121      C1122   1.400       .  A
C1121      H1128   1.084       .  S
C1122      S1124   1.804       .  S
S1123      H1126   1.408       .  S
S1124      H1125   1.407       .  S
C1129      C1130   1.407       .  A
C1129      C1134   1.418       .  A
C1130      C1131   1.402       .  A
C1130      H1139   1.084       .  S
C1131      C1132   1.415       .  A
C1131      S1135   1.803       .  S
C1132      C1133   1.402       .  A
C1133      C1134   1.398       .  A
C1133      H1140   1.084       .  S
C1134      S1136   1.803       .  S
S1135      H1138   1.408       .  S
S1136      H1137   1.407       .  S
C1141      C1142   1.406   1_565  A
C1141      C1602   1.415       .  A
C1142      C1143   1.399       .  A
C1142      H1151   1.084       .  S
C1143      C1144   1.415   1_545  A
C1143      S1147   1.804       .  S
C1144      C1601   1.404       .  A
C1145      C1600   1.404       .  A
C1145      C1146   1.400       .  A
C1145      H1152   1.084       .  S
C1146      C1597   1.417       .  A
C1146      S1148   1.803       .  S
S1147      H1150   1.407       .  S
S1148      H1149   1.408       .  S
C1153      C1154   1.403       .  A
C1153      C1158   1.413   1_554  A
C1154      C1155   1.398       .  A
C1154      H1163   1.083       .  S
C1155      C1156   1.416       .  A
C1155      S1159   1.804       .  S
C1156      C1157   1.404   1_554  A
C1157      C1158   1.397       .  A
C1157      H1164   1.084       .  S
C1158      S1160   1.803       .  S
S1159      H1162   1.405       .  S
S1160      H1161   1.407       .  S
C1165      C1166   1.404   1_556  A
C1165      C1170   1.414       .  A
C1166      C1167   1.402       .  A
C1166      H1175   1.083       .  S
C1167      C1168   1.413       .  A
C1167      S1171   1.809       .  S
C1168      C1169   1.403   1_554  A
C1169      C1170   1.398       .  A
C1169      H1176   1.084       .  S
C1170      S1172   1.804       .  S
S1171      H1174   1.407       .  S
S1172      H1173   1.407       .  S
C1177      C1182   1.407   1_655  A
C1178      C1179   1.400       .  A
C1178      H1187   1.084       .  S
C1179      S1183   1.802       .  S
C1180      C1181   1.411   1_655  A
C1181      C1182   1.403       .  A
C1181      H1188   1.082       .  S
C1182      S1184   1.808       .  S
S1183      H1186   1.408       .  S
S1184      H1185   1.407       .  S
C1189      C1190   1.403   1_554  A
C1189      C1650   1.415       .  A
C1190      C1191   1.399       .  A
C1190      H1199   1.084       .  S
C1191      C1648   1.414       .  A
C1191      S1195   1.804       .  S
C1192      C1647   1.414   1_544  A
C1192      C1193   1.404       .  A
C1193      C1194   1.403       .  A
C1193      H1200   1.084       .  S
C1194      C1645   1.415       .  A
C1194      S1196   1.803       .  S
S1195      H1198   1.408       .  S
S1196      H1197   1.407       .  S
C1201      C1202   1.405       .  A
C1201      C1662   1.417   1_554  A
C1202      C1203   1.398       .  A
C1202      H1211   1.084       .  S
C1203      C1660   1.416       .  A
C1203      S1207   1.804       .  S
C1204      C1659   1.413   1_545  A
C1204      C1205   1.403   1_554  A
C1205      C1206   1.400       .  A
C1205      H1212   1.084       .  S
C1206      C1657   1.412   1_545  A
C1206      S1208   1.800       .  S
S1207      H1210   1.408       .  S
S1208      H1209   1.407       .  S
C1213      C1214   1.407   1_455  A
C1214      C1215   1.399       .  A
C1214      H1223   1.084       .  S
C1215      C1216   1.413   1_655  A
C1215      S1219   1.803       .  S
C1216      C1493   1.479   1_455  S
C1217      C1218   1.398       .  A
C1217      H1224   1.084       .  S
C1218      S1220   1.802       .  S
S1219      H1222   1.407       .  S
S1220      H1221   1.401       .  S
C1225      C1226   1.401       .  A
C1225      C1230   1.407       .  A
C1226      C1227   1.404       .  A
C1226      H1235   1.084       .  S
C1227      C1228   1.420       .  A
C1227      S1231   1.802       .  S
C1228      C1229   1.408       .  A
C1229      C1230   1.397       .  A
C1229      H1236   1.083       .  S
C1230      S1232   1.803       .  S
S1231      H1234   1.408       .  S
S1232      H1233   1.405       .  S
C1237      C1238   1.402       .  A
C1237      C1242   1.415       .  A
C1238      C1239   1.399       .  A
C1238      H1247   1.084       .  S
C1239      C1240   1.414       .  A
C1239      S1243   1.804       .  S
C1240      C1241   1.401       .  A
C1241      C1242   1.400       .  A
C1241      H1248   1.084       .  S
C1242      S1244   1.804       .  S
S1243      H1246   1.400       .  S
S1244      H1245   1.401       .  S
C1249      C1250   1.399   1_565  A
C1249      C1710   1.410       .  A
C1250      C1251   1.395       .  A
C1250      H1259   1.085       .  S
C1251      C1252   1.421   1_545  A
C1251      S1255   1.802       .  S
C1252      C1709   1.411       .  A
C1253      C1708   1.411       .  A
C1253      C1254   1.398       .  A
C1253      H1260   1.083       .  S
C1254      C1705   1.407       .  A
C1254      S1256   1.805       .  S
S1255      H1258   1.400   1_545  S
S1256      H1257   1.406       .  S
C1261      C1718   1.405       .  A
C1261      C1266   1.412   1_545  A
C1262      C1717   1.404       .  A
C1262      C1263   1.404       .  A
C1262      H1271   1.083       .  S
C1263      C1720   1.418       .  A
C1263      S1267   1.809       .  S
C1264      C1719   1.418       .  A
C1264      C1265   1.405   1_545  A
C1265      C1266   1.395       .  A
C1265      H1272   1.084       .  S
C1266      S1268   1.804       .  S
S1267      H1270   1.407       .  S
S1268      H1269   1.408       .  S
C1273      C1278   1.410       .  A
C1274      C1275   1.399       .  A
C1274      H1283   1.084       .  S
C1275      S1279   1.803       .  S
C1276      C1277   1.406       .  A
C1277      C1278   1.402       .  A
C1277      H1284   1.084       .  S
C1278      S1280   1.805       .  S
S1279      H1282   1.407       .  S
S1280      H1281   1.405       .  S
C1285      C1286   1.406       .  A
C1285      C1290   1.412       .  A
C1286      C1287   1.398       .  A
C1286      H1295   1.084       .  S
C1287      C1288   1.412       .  A
C1287      S1291   1.804       .  S
C1288      C1289   1.404       .  A
C1289      C1290   1.396       .  A
C1289      H1296   1.084       .  S
C1290      S1292   1.803       .  S
S1291      H1294   1.407       .  S
S1292      H1293   1.407       .  S
C1297      C1298   1.405       .  A
C1297      C1302   1.416       .  A
C1298      C1299   1.398       .  A
C1298      H1307   1.084       .  S
C1299      C1300   1.418       .  A
C1299      S1303   1.801       .  S
C1300      C1301   1.406       .  A
C1301      C1302   1.399       .  A
C1301      H1308   1.084       .  S
C1302      S1304   1.803       .  S
S1303      H1306   1.408       .  S
S1304      H1305   1.408       .  S
C1309      C1310   1.405       .  A
C1310      C1311   1.400       .  A
C1310      H1319   1.084       .  S
C1311      C1312   1.411       .  A
C1311      S1315   1.803       .  S
C1313      C1314   1.401       .  A
C1313      H1320   1.084       .  S
C1314      S1316   1.802       .  S
S1315      H1318   1.405       .  S
S1316      H1317   1.406       .  S
C1321      C1322   1.401   1_455  A
C1322      C1323   1.400       .  A
C1322      H1331   1.084       .  S
C1323      C1780   1.421       .  A
C1323      S1327   1.801       .  S
C1324      C1779   1.417       .  A
C1325      C1326   1.399   1_565  A
C1325      H1332   1.084   1_565  S
C1326      S1328   1.804       .  S
S1327      H1330   1.408       .  S
S1328      H1329   1.408       .  S
C1333      C1334   1.404       .  A
C1333      C1338   1.414       .  A
C1334      C1335   1.397       .  A
C1334      H1343   1.084       .  S
C1335      C1336   1.414       .  A
C1335      S1339   1.803       .  S
C1336      C1337   1.406       .  A
C1337      C1338   1.398       .  A
C1337      H1344   1.084       .  S
C1338      S1340   1.804       .  S
S1339      H1342   1.408       .  S
S1340      H1341   1.406       .  S
C1345      C1346   1.402       .  A
C1345      C1350   1.413       .  A
C1346      C1347   1.396       .  A
C1346      H1355   1.084       .  S
C1347      C1348   1.417       .  A
C1347      S1351   1.804       .  S
C1348      C1349   1.404       .  A
C1349      C1350   1.396       .  A
C1349      H1356   1.084       .  S
C1350      S1352   1.804       .  S
S1351      H1354   1.405       .  S
S1352      H1353   1.408       .  S
C1357      C1362   1.413   1_455  A
C1358      C1359   1.401       .  A
C1358      H1367   1.084       .  S
C1359      S1363   1.804       .  S
C1360      C1361   1.400   1_455  A
C1361      C1362   1.398       .  A
C1361      H1368   1.084       .  S
C1362      S1364   1.804       .  S
S1363      H1366   1.404       .  S
S1364      H1365   1.405       .  S
O1369      C1379   1.281       .  A
O1370      C1380   1.281       .  A
O1371     Ni1377   1.919       .  S
O1372      C1382   1.281       .  A
O1372     Ni1377   1.920       .  S
O1373     Ni1378   1.917       .  S
O1374     Ni1378   1.917       .  S
O1375      C1380   1.280       .  A
O1376      C1379   1.280       .  A
C1379      C1789   1.479       .  S
C1380      C1801   1.473       .  S
C1381      C1777   1.481       .  S
O1383      C1393   1.281       .  A
O1384      C1394   1.282       .  A
O1384     Ni1391   1.913       .  S
O1385      C1395   1.280       .  A
O1385     Ni1391   1.915       .  S
O1386      C1396   1.280       .  A
O1386     Ni1391   1.917       .  S
O1387     Ni1392   1.923       .  S
O1388     Ni1392   1.922       .  S
O1389      C1394   1.278       .  A
O1390      C1393   1.280       .  A
O1390     Ni1392   1.910       .  S
C1393      C1741   1.475       .  S
C1394      C1756   1.481       .  S
C1396      C1768   1.473       .  S
O1397      C1407   1.281       .  A
O1397     Ni1405   1.914       .  S
O1398      C1408   1.281       .  A
O1399      C1409   1.281       .  A
O1399     Ni1405   1.917       .  S
O1400      C1410   1.281       .  A
O1400     Ni1405   1.918       .  S
O1401     Ni1406   1.908       .  S
O1402     Ni1406   1.906       .  S
O1403      C1408   1.279       .  A
O1403     Ni1406   1.908       .  S
O1404      C1407   1.280       .  A
C1407      C1744   1.474       .  S
C1408      C1753   1.479       .  S
C1409      C1705   1.467       .  S
C1410      C1720   1.485       .  S
O1411      C1421   1.281       .  A
O1411     Ni1419   1.918       .  S
O1412      C1422   1.280       .  A
O1412     Ni1419   1.917       .  S
O1413      C1423   1.280       .  A
O1413     Ni1419   1.909       .  S
O1414      C1424   1.280       .  A
O1414     Ni1419   1.911       .  S
O1415      C1424   1.281       .  A
O1415     Ni1420   1.913       .  S
O1416      C1423   1.280       .  A
O1416     Ni1420   1.913       .  S
O1417      C1422   1.282       .  A
O1417     Ni1420   1.914       .  S
O1418      C1421   1.279       .  A
O1418     Ni1420   1.912       .  S
Ni1419    Ni1420   2.386       .  S
C1421      C1696   1.468       .  S
C1422      C1684   1.491       .  S
C1423      C1804   1.474       .  S
C1424      C1792   1.481       .  S
O1425      C1435   1.281       .  A
O1426      C1436   1.282   1_566  A
O1426     Ni1433   1.917       .  S
O1427      C1437   1.282   1_665  A
O1427     Ni1433   1.915       .  S
O1428      C1438   1.280   1_655  A
O1428     Ni1433   1.911   1_554  S
O1429     Ni1434   1.919       .  S
O1430     Ni1434   1.921   1_556  S
O1432     Ni1434   1.904       .  S
C1435      C1657   1.477       .  S
C1436      C1645   1.480       .  S
C1437      C1669   1.491       .  S
C1438      C1816   1.469       .  S
O1439      C1449   1.281   1_554  A
O1439     Ni1447   1.915       .  S
O1440      C1450   1.281       .  A
O1441      C1451   1.281       .  A
O1441     Ni1447   1.918       .  S
O1442      C1452   1.281       .  A
O1442     Ni1447   1.917   1_556  S
O1443     Ni1448   1.917       .  S
O1444     Ni1448   1.921   1_554  S
O1445      C1450   1.280   1_556  A
O1445     Ni1448   1.908       .  S
O1446      C1449   1.281       .  A
C1449      C1621   1.477       .  S
C1450      C1609   1.475   1_554  S
C1451      C1765   1.477       .  S
O1453      C1463   1.282       .  A
O1453     Ni1461   1.914   1_554  S
O1454      C1464   1.282       .  A
O1454     Ni1461   1.917       .  S
O1455      C1465   1.281       .  A
O1455     Ni1461   1.915       .  S
O1456      C1466   1.280       .  A
O1456     Ni1461   1.913   1_554  S
O1457     Ni1462   1.910       .  S
O1458     Ni1462   1.912   1_556  S
O1459     Ni1462   1.915       .  S
O1460     Ni1462   1.915       .  S
C1463      C1660   1.479       .  S
C1464      C1648   1.475       .  S
C1465      C1600   1.480       .  S
C1466      C1717   1.475       .  S
O1467      C1477   1.280       .  A
O1467     Ni1475   1.913   1_554  S
O1468      C1478   1.280       .  A
O1468     Ni1475   1.909       .  S
O1469      C1479   1.282       .  A
O1469     Ni1475   1.919       .  S
O1470      C1480   1.281       .  A
O1470     Ni1475   1.918   1_554  S
O1471      C1480   1.280       .  A
O1471     Ni1476   1.913   1_554  S
O1472      C1479   1.280       .  A
O1472     Ni1476   1.912       .  S
O1473      C1478   1.281       .  A
O1473     Ni1476   1.917       .  S
O1474      C1477   1.281   1_556  A
O1474     Ni1476   1.916       .  S
Ni1475    Ni1476   2.389       .  S
C1477      C1624   1.477       .  S
C1478      C1612   1.477   1_556  S
C1479      C1585   1.479       .  S
C1480      C1693   1.470       .  S
O1482     Ni1489   1.915       .  S
O1483     Ni1489   1.914       .  S
O1484      C1494   1.282       .  A
O1484     Ni1489   1.913       .  S
O1485     Ni1490   1.921       .  S
O1486     Ni1490   1.921       .  S
O1487      C1492   1.281       .  A
O1488      C1491   1.280       .  A
O1488     Ni1490   1.913       .  S
C1491      C1564   1.473       .  S
C1492      C1576   1.480   1_655  S
O1495     Ni1503   1.916       .  S
O1496     Ni1503   1.911       .  S
O1497     Ni1503   1.917       .  S
O1498     Ni1503   1.918       .  S
O1499      C1508   1.280       .  A
O1499     Ni1504   1.915       .  S
O1500      C1507   1.281       .  A
O1500     Ni1504   1.918       .  S
O1501      C1506   1.281       .  A
O1501     Ni1504   1.913       .  S
O1502      C1505   1.280       .  A
O1502     Ni1504   1.912       .  S
C1505      C1573   1.480       .  S
C1506      C1561   1.473       .  S
C1507      C1636   1.490       .  S
C1508      C1729   1.469       .  S
O1509      C1519   1.281       .  A
O1510      C1520   1.280       .  A
O1510     Ni1517   1.912       .  S
O1511     Ni1517   1.918       .  S
O1512     Ni1517   1.920       .  S
O1513      C1522   1.280       .  A
O1513     Ni1518   1.917       .  S
O1514      C1521   1.282       .  A
O1514     Ni1518   1.914       .  S
O1515      C1520   1.282       .  A
O1516      C1519   1.280       .  A
O1516     Ni1518   1.914       .  S
C1519      C1552   1.475       .  S
C1520      C1537   1.478       .  S
C1521      C1597   1.483       .  S
C1522      C1708   1.490       .  S
O1523      C1533   1.281       .  A
O1523     Ni1531   1.914       .  S
O1524      C1534   1.280       .  A
O1524     Ni1531   1.910       .  S
O1525      C1535   1.281       .  A
O1525     Ni1531   1.917       .  S
O1526      C1536   1.281       .  A
O1526     Ni1531   1.917       .  S
O1527      C1536   1.281       .  A
O1527     Ni1532   1.912       .  S
O1528      C1535   1.280       .  A
O1528     Ni1532   1.914       .  S
O1529      C1534   1.281       .  A
O1529     Ni1532   1.916       .  S
O1530      C1533   1.281       .  A
O1530     Ni1532   1.913       .  S
Ni1531    Ni1532   2.389       .  S
C1533      C1549   1.475       .  S
C1534      C1540   1.474       .  S
C1535      C1681   1.474       .  S
C1536      C1588   1.484       .  S
C1537      C1538   1.404       .  A
C1537      C1542   1.413       .  A
C1538      C1539   1.398       .  A
C1538      H1547   1.084       .  S
C1539      C1540   1.414       .  A
C1539      S1543   1.804       .  S
C1540      C1541   1.402       .  A
C1541      C1542   1.397       .  A
C1541      H1548   1.084       .  S
C1542      S1544   1.798       .  S
S1543      H1546   1.407       .  S
S1544      H1545   1.407       .  S
C1549      C1550   1.404       .  A
C1549      C1554   1.413       .  A
C1550      C1551   1.398       .  A
C1550      H1559   1.084       .  S
C1551      C1552   1.414       .  A
C1551      S1555   1.804       .  S
C1552      C1553   1.404       .  A
C1553      C1554   1.398       .  A
C1553      H1560   1.084       .  S
C1554      S1556   1.804       .  S
S1555      H1558   1.407       .  S
S1556      H1557   1.408       .  S
C1561      C1566   1.413       .  A
C1562      C1563   1.397       .  A
C1562      H1571   1.084       .  S
C1563      S1567   1.804       .  S
C1564      C1565   1.403       .  A
C1565      C1566   1.398       .  A
C1565      H1572   1.084       .  S
C1566      S1568   1.804       .  S
S1567      H1570   1.406       .  S
S1568      H1569   1.407       .  S
C1573      C1578   1.414       .  A
C1574      C1575   1.400       .  A
C1574      H1583   1.084       .  S
C1575      S1579   1.803       .  S
C1576      C1577   1.404   1_455  A
C1577      C1578   1.396       .  A
C1577      H1584   1.084       .  S
C1578      S1580   1.802       .  S
S1579      H1582   1.408       .  S
S1580      H1581   1.407       .  S
C1585      C1586   1.404       .  A
C1585      C1590   1.413       .  A
C1586      C1587   1.399       .  A
C1586      H1595   1.084       .  S
C1587      C1588   1.416       .  A
C1587      S1591   1.803       .  S
C1588      C1589   1.407       .  A
C1589      C1590   1.398       .  A
C1589      H1596   1.084       .  S
C1590      S1592   1.803       .  S
S1591      H1594   1.408       .  S
S1592      H1593   1.407       .  S
C1597      C1598   1.405       .  A
C1598      C1599   1.397       .  A
C1598      H1607   1.084       .  S
C1599      C1600   1.414       .  A
C1599      S1603   1.803       .  S
C1601      C1602   1.398       .  A
C1601      H1608   1.084       .  S
C1602      S1604   1.803       .  S
S1603      H1606   1.408       .  S
S1604      H1605   1.407       .  S
C1609      C1610   1.404   1_556  A
C1609      C1614   1.413       .  A
C1610      C1611   1.397       .  A
C1610      H1619   1.083       .  S
C1611      C1612   1.415       .  A
C1611      S1615   1.804       .  S
C1612      C1613   1.405   1_554  A
C1613      C1614   1.397       .  A
C1613      H1620   1.083       .  S
C1614      S1616   1.804       .  S
S1615      H1618   1.405       .  S
S1616      H1617   1.408       .  S
C1621      C1622   1.403   1_556  A
C1621      C1626   1.414       .  A
C1622      C1623   1.402       .  A
C1622      H1631   1.083       .  S
C1623      C1624   1.413       .  A
C1623      S1627   1.809       .  S
C1624      C1625   1.403   1_554  A
C1625      C1626   1.398       .  A
C1625      H1632   1.084       .  S
C1626      S1628   1.804       .  S
S1627      H1630   1.407       .  S
S1628      H1629   1.407       .  S
C1633      C1638   1.412   1_655  A
C1634      C1635   1.403       .  A
C1634      H1643   1.083       .  S
C1635      S1639   1.810       .  S
C1636      C1637   1.408   1_655  A
C1637      C1638   1.403       .  A
C1637      H1644   1.082       .  S
C1638      S1640   1.809       .  S
S1639      H1642   1.406       .  S
S1640      H1641   1.407       .  S
C1645      C1646   1.402   1_544  A
C1646      C1647   1.398       .  A
C1646      H1655   1.084       .  S
C1647      S1651   1.804       .  S
C1648      C1649   1.402   1_556  A
C1649      C1650   1.397       .  A
C1649      H1656   1.084       .  S
C1650      S1652   1.804       .  S
S1651      H1654   1.405       .  S
S1652      H1653   1.408       .  S
C1657      C1658   1.403   1_556  A
C1658      C1659   1.400       .  A
C1658      H1667   1.084       .  S
C1659      S1663   1.804       .  S
C1660      C1661   1.402   1_554  A
C1661      C1662   1.395       .  A
C1661      H1668   1.084       .  S
C1662      S1664   1.799       .  S
S1663      H1666   1.407       .  S
S1664      H1665   1.408   1_556  S
C1669      C1670   1.410   1_445  A
C1670      C1671   1.400       .  A
C1670      H1679   1.083       .  S
C1671      C1672   1.411       .  A
C1671      S1675   1.804       .  S
C1673      C1674   1.400       .  A
C1673      H1680   1.084       .  S
C1674      S1676   1.801       .  S
S1675      H1678   1.406       .  S
S1676      H1677   1.406       .  S
C1681      C1682   1.401       .  A
C1681      C1686   1.410       .  A
C1682      C1683   1.400       .  A
C1682      H1691   1.084       .  S
C1683      C1684   1.420       .  A
C1683      S1687   1.800       .  S
C1684      C1685   1.409       .  A
C1685      C1686   1.397       .  A
C1685      H1692   1.084       .  S
C1686      S1688   1.804       .  S
S1687      H1690   1.408       .  S
S1688      H1689   1.407       .  S
C1693      C1694   1.403       .  A
C1693      C1698   1.414       .  A
C1694      C1695   1.398       .  A
C1694      H1703   1.084       .  S
C1695      C1696   1.411       .  A
C1695      S1699   1.801       .  S
C1696      C1697   1.401       .  A
C1697      C1698   1.399       .  A
C1697      H1704   1.084       .  S
C1698      S1700   1.805       .  S
S1699      H1702   1.404       .  S
S1700      H1701   1.401       .  S
C1705      C1706   1.399       .  A
C1706      C1707   1.398       .  A
C1706      H1715   1.085       .  S
C1707      C1708   1.421       .  A
C1707      S1711   1.801       .  S
C1709      C1710   1.402       .  A
C1709      H1716   1.083       .  S
C1710      S1712   1.804       .  S
S1711      H1714   1.404       .  S
S1712      H1713   1.407       .  S
C1717      C1722   1.410       .  A
C1718      C1719   1.406       .  A
C1718      H1727   1.083       .  S
C1719      S1723   1.809       .  S
C1720      C1721   1.406       .  A
C1721      C1722   1.394       .  A
C1721      H1728   1.084       .  S
C1722      S1724   1.804       .  S
S1723      H1726   1.407       .  S
S1724      H1725   1.408       .  S
C1729      C1734   1.411       .  A
C1730      C1731   1.399       .  A
C1730      H1739   1.084       .  S
C1731      S1735   1.801       .  S
C1732      C1733   1.403       .  A
C1733      C1734   1.400       .  A
C1733      H1740   1.084       .  S
C1734      S1736   1.804       .  S
S1735      H1738   1.406       .  S
S1736      H1737   1.406       .  S
C1741      C1742   1.405       .  A
C1741      C1746   1.414       .  A
C1742      C1743   1.397       .  A
C1742      H1751   1.084       .  S
C1743      C1744   1.412       .  A
C1743      S1747   1.804       .  S
C1744      C1745   1.404       .  A
C1745      C1746   1.398       .  A
C1745      H1752   1.084       .  S
C1746      S1748   1.803       .  S
S1747      H1750   1.408       .  S
S1748      H1749   1.408       .  S
C1753      C1754   1.404       .  A
C1753      C1758   1.414       .  A
C1754      C1755   1.401       .  A
C1754      H1763   1.083       .  S
C1755      C1756   1.417       .  A
C1755      S1759   1.808       .  S
C1756      C1757   1.405       .  A
C1757      C1758   1.395       .  A
C1757      H1764   1.084       .  S
C1758      S1760   1.804       .  S
S1759      H1762   1.407       .  S
S1760      H1761   1.408       .  S
C1765      C1766   1.403       .  A
C1766      C1767   1.400       .  A
C1766      H1775   1.084       .  S
C1767      C1768   1.413       .  A
C1767      S1771   1.802       .  S
C1769      C1770   1.401       .  A
C1769      H1776   1.084       .  S
C1770      S1772   1.802       .  S
S1771      H1774   1.405       .  S
S1772      H1773   1.406       .  S
C1777      C1778   1.404   1_455  A
C1778      C1779   1.404       .  A
C1778      H1787   1.083       .  S
C1779      S1783   1.810       .  S
C1781      C1782   1.396       .  A
C1781      H1788   1.083       .  S
C1782      S1784   1.805       .  S
S1783      H1786   1.407       .  S
S1784      H1785   1.405       .  S
C1789      C1790   1.404       .  A
C1789      C1794   1.415       .  A
C1790      C1791   1.394       .  A
C1790      H1799   1.084       .  S
C1791      C1792   1.414       .  A
C1791      S1795   1.803       .  S
C1792      C1793   1.407       .  A
C1793      C1794   1.399       .  A
C1793      H1800   1.084       .  S
C1794      S1796   1.804       .  S
S1795      H1798   1.408       .  S
S1796      H1797   1.406       .  S
C1801      C1802   1.402       .  A
C1801      C1806   1.414       .  A
C1802      C1803   1.395       .  A
C1802      H1811   1.084       .  S
C1803      C1804   1.414       .  A
C1803      S1807   1.804       .  S
C1804      C1805   1.405       .  A
C1805      C1806   1.399       .  A
C1805      H1812   1.084       .  S
C1806      S1808   1.804       .  S
S1807      H1810   1.406       .  S
S1808      H1809   1.406       .  S
C1813      C1818   1.412   1_455  A
C1814      C1815   1.399       .  A
C1814      H1823   1.084       .  S
C1815      S1819   1.803       .  S
C1816      C1817   1.401   1_455  A
C1817      C1818   1.397       .  A
C1817      H1824   1.084       .  S
C1818      S1820   1.804       .  S
S1819      H1822   1.405       .  S
S1820      H1821   1.404       .  S
