geometry optimzed in LAMMPS
_audit_creation_date              2020-11-30 
_audit_creation_method            'lammps2cif' 
_symmetry_space_group_name_H-M    'P1' 
_symmetry_Int_Tables_number       1 
_symmetry_cell_setting            triclinic 
loop_ 
_symmetry_equiv_pos_as_xyz 
  x,y,z 
_cell_length_a                    30.01608894 
_cell_length_b                    30.282809084429065 
_cell_length_c                    63.9744095725499 
_cell_angle_alpha                 90.180695078943 
_cell_angle_beta                  89.70815519345994 
_cell_angle_gamma                 119.64778573682315 
loop_ 
_atom_site_label 
_atom_site_type_symbol 
_atom_site_fract_x 
_atom_site_fract_y 
_atom_site_fract_z 
_atom_site_charge 
C1          C  0.29921807  0.27865903  0.40222475     0.02600
C2          C  0.29809361  0.28050476  0.42426817     0.02500
C3          C  0.26093447  0.23892184  0.43542131    -0.18000
C4          C  0.22271532  0.19647987  0.42517400     0.02600
C5          C  0.22049502  0.19567926  0.40315881     0.02500
C6          C  0.25971421  0.23633823  0.39178972    -0.18000
H7          H  0.25899240  0.23537019  0.37485380     0.04600
H8          H  0.26105361  0.24010497  0.45238085     0.04600
C9          C  0.98329651  0.28129395  0.62578052     0.02600
C10         C  0.98192103  0.28127861  0.60376325     0.02500
C11         C  0.97714131  0.23956480  0.59264133    -0.18000
C12         C  0.97517544  0.19803612  0.60284921     0.02600
C13         C  0.97872274  0.19811446  0.62485627     0.02500
C14         C  0.98156735  0.23950200  0.63621915    -0.18000
H15         H  0.98304109  0.23947030  0.65314267     0.04600
H16         H  0.48400905  0.24382397  0.57727488     0.04600
O17         O  0.45714563  0.04105034  0.53300439    -0.57500
C18         C  0.43104841  0.43294688  0.48256246     0.75100
O19         O  0.08345652  0.03005077  0.49616564    -0.58700
C20         C  0.99093574  0.06340290  0.54331957     0.75100
C21         C  0.49835694  0.43142784  0.54464703     0.77500
Cd22       Cd  0.99689904  0.49834312  0.51385123     1.37500
O23         O  0.41881408  0.46219736  0.49219333    -0.57500
O24         O  0.45728334  0.43050135  0.53940073    -0.56300
C25         C  0.07558399  0.06024496  0.48507544     0.77400
O26         O  0.03711491  0.45839724  0.53372671    -0.58700
O27         O  0.47134017  0.43352578  0.48859127    -0.57100
O28         O  0.03324439  0.06504239  0.53979005    -0.57100
O29         O  0.03516411  0.06199419  0.48900217    -0.56300
C30         C  0.99197510  0.28654847  0.75624751     0.02600
C31         C  0.99106797  0.28712719  0.73414983     0.02500
C32         C  0.99216664  0.24754824  0.72283068    -0.18000
C33         C  0.99511105  0.20807199  0.73322831     0.02600
C34         C  0.99736638  0.20875654  0.75526804     0.02500
C35         C  0.99550272  0.24757717  0.76643516    -0.18000
H36         H  0.99723965  0.24763415  0.78337373     0.04600
H37         H  0.99076355  0.24750762  0.70590261     0.04600
O38         O  0.46039714  0.42403348  0.82876497    -0.57500
C39         C  0.44135046  0.00739448  0.87690763     0.75100
O40         O  0.09208349  0.05120091  0.86597104    -0.58700
C41         C  0.00211609  0.43588469  0.81544868     0.75100
C42         C  0.50857996  0.07413499  0.81534072     0.77500
Cd43       Cd  0.01057302  0.50967433  0.84579641     1.37500
O44         O  0.42694459  0.46024517  0.86719633    -0.57500
O45         O  0.46955461  0.03292282  0.82071704    -0.56300
C46         C  0.07934466  0.51431632  0.87775531     0.77400
O47         O  0.05558555  0.08292014  0.82307742    -0.58700
O48         O  0.48243266  0.04748473  0.87215365    -0.57100
O49         O  0.04371060  0.47666818  0.81870714    -0.57100
O50         O  0.03985896  0.47353823  0.87248125    -0.56300
C51         C  0.22299744  0.51951828  0.96054420     0.02600
C52         C  0.22080352  0.51694392  0.93860044     0.02500
C53         C  0.25754811  0.51102731  0.92755566    -0.18000
C54         C  0.29786190  0.50964796  0.93775979     0.02600
C55         C  0.30267495  0.51565497  0.95976093     0.02500
C56         C  0.26407095  0.51932598  0.97099428    -0.18000
H57         H  0.26593666  0.52204994  0.98790212     0.04600
H58         H  0.25510096  0.50814337  0.91063502     0.04600
C59         C  0.29889866  0.28328719  0.27643154     0.02600
C60         C  0.30167298  0.27889909  0.29822717     0.02500
C61         C  0.26206053  0.23658268  0.30865876    -0.18000
C62         C  0.22014292  0.19849401  0.29741727     0.02600
C63         C  0.21789347  0.20422673  0.27557799     0.02500
C64         C  0.25721560  0.24621771  0.26544449    -0.18000
H65         H  0.25555619  0.24996272  0.24863680     0.04600
H66         H  0.26372384  0.23340928  0.32547529     0.04600
C67         C  0.47630526  0.44425964  0.33879057     0.02600
C68         C  0.47351575  0.44516481  0.36084254     0.02500
C69         C  0.01648908  0.48563914  0.37287723    -0.18000
C70         C  0.05063400  0.02648493  0.36144175     0.02600
C71         C  0.05199620  0.02650342  0.33935665     0.02500
C72         C  0.01621994  0.48348856  0.32910640    -0.18000
H73         H  0.01599541  0.48260923  0.31216560     0.04600
H74         H  0.01681628  0.48640220  0.38981457     0.04600
O75         O  0.47227745  0.05205828  0.16640148    -0.57500
C76         C  0.07249231  0.07089390  0.21462967     0.75100
O77         O  0.46798365  0.41586525  0.20564565    -0.58700
C78         C  0.43720518  0.50118081  0.15399275     0.75100
C79         C  0.07391904  0.00165109  0.15315162     0.77500
Cd80       Cd  0.00135003  0.49133845  0.18345095     1.37500
O81         O  0.04042928  0.07955947  0.20524578    -0.57500
O82         O  0.07532409  0.04161251  0.15991705    -0.56300
C83         C  0.43784586  0.42551982  0.21618493     0.77400
O84         O  0.03798229  0.45005528  0.16141427    -0.58700
O85         O  0.07336448  0.03105707  0.20926179    -0.57100
O86         O  0.43723361  0.46011119  0.15762325    -0.57100
O87         O  0.43586615  0.46481398  0.21097118    -0.56300
C88         C  0.22514631  0.02048704  0.09272081     0.02600
C89         C  0.22207981  0.51248209  0.07021878     0.02500
C90         C  0.26568966  0.51768441  0.05957398    -0.18000
C91         C  0.30468045  0.51382947  0.07029797     0.02600
C92         C  0.30974236  0.02821566  0.09295786     0.02500
C93         C  0.26616599  0.02200321  0.10346605    -0.18000
H94         H  0.26395644  0.01787929  0.12035122     0.04600
H95         H  0.26925002  0.52470064  0.04288271     0.04600
C96         C  0.05841067  0.52472136  0.00488169     0.02600
C97         C  0.05787355  0.52325155  0.02693042     0.02500
C98         C  0.01605922  0.52117888  0.03775350    -0.18000
C99         C  0.47926689  0.52818764  0.02499124     0.02600
C100        C  0.47876789  0.52790069  0.00282525     0.02500
C101        C  0.01741104  0.52374370  0.99401045    -0.18000
H102        H  0.01813262  0.52458855  0.97706660     0.04600
H103        H  0.01513881  0.51946345  0.05468367     0.04600
C104        C  0.98479710  0.45069962  0.66856012     0.02600
C105        C  0.98822708  0.45328820  0.69060031     0.02500
C106        C  0.99239749  0.99819409  0.70142845    -0.18000
C107        C  0.98880809  0.03612672  0.69012285     0.02600
C108        C  0.98272794  0.03163944  0.66813210     0.02500
C109        C  0.98019149  0.98910958  0.65795350    -0.18000
H110        H  0.97601678  0.98576990  0.64111345     0.04600
H111        H  0.99698900  0.00156395  0.71825271     0.04600
C112        C  0.40606014  0.06989220  0.06269371    -0.26000
C113        C  0.34916502  0.51743211  0.05851828    -0.14100
C114        C  0.34321956  0.47933788  0.04415204     0.36500
C115        C  0.38626545  0.48267325  0.03414742    -0.25500
C116        C  0.43533326  0.52448392  0.03731308    -0.14700
C117        C  0.44741744  0.06951312  0.05230360     0.37600
N118        N  0.49911065  0.10910075  0.05612892    -0.89000
H119        H  0.41352315  0.10010290  0.07364695     0.18700
H120        H  0.38122586  0.45279722  0.02342482     0.18700
N121        N  0.29399876  0.43681944  0.03937581    -0.88000
H122        H  0.49973041  0.13470792  0.06727253     0.36100
H123        H  0.51336356  0.12950543  0.04222746     0.41200
H124        H  0.27614578  0.41819305  0.05322947     0.40800
H125        H  0.27153091  0.45016066  0.03242222     0.35700
C126        C  0.13123188  0.47363992  0.05825730    -0.26000
C127        C  0.18090307  0.51583358  0.05859820    -0.14100
C128        C  0.19218517  0.07009091  0.04798852     0.36500
C129        C  0.15028100  0.06898496  0.03781870    -0.25500
C130        C  0.09962813  0.52124339  0.03866585    -0.14700
C131        C  0.09066377  0.47614991  0.04857093     0.37600
N132        N  0.04045518  0.43245175  0.04845924    -0.89000
H133        H  0.12388427  0.43839406  0.06550073     0.18700
H134        H  0.15580999  0.10239261  0.02945447     0.18700
N135        N  0.24138406  0.11513563  0.04728925    -0.88000
H136        H  0.02901334  0.42213387  0.06397852     0.36100
H137        H  0.04285497  0.40265559  0.04126159     0.41200
H138        H  0.23804265  0.63464526  0.05546843     0.40800
H139        H  0.25191616  0.61433674  0.03300028     0.35700
C140        C  0.37210682  0.45973548  0.12590777    -0.26000
C141        C  0.40517574  0.50420987  0.13701437    -0.14100
C142        C  0.41558194  0.06903044  0.13265783     0.43700
C143        C  0.38361396  0.07096549  0.11713098    -0.25500
C144        C  0.34063427  0.50569013  0.10525960    -0.14700
C145        C  0.33970780  0.45998155  0.11033104     0.37600
N146        N  0.30523681  0.41302162  0.10032458    -0.89000
H147        H  0.37039180  0.42405108  0.12964626     0.18700
H148        H  0.38416094  0.10646190  0.11418067     0.18700
N149        N  0.44987818  0.11438983  0.14373932    -0.88000
H150        H  0.31355020  0.41703979  0.08435411     0.36100
H151        H  0.26775574  0.40598296  0.10251191     0.41200
H152        H  0.42817855  0.12854566  0.15095640     0.40800
H153        H  0.47420532  0.14128919  0.13283096     0.35700
C154        C  0.14759990  0.05304613  0.12961434    -0.26000
C155        C  0.10944859  0.00465091  0.13629570    -0.14100
C156        C  0.09806075  0.44945838  0.12496521     0.36500
C157        C  0.13405845  0.45372904  0.10986925    -0.25500
C158        C  0.18177735  0.01542514  0.10548218    -0.14700
C159        C  0.18359156  0.05874297  0.11445605     0.37600
N160        N  0.22276471  0.10900333  0.10893659    -0.89000
H161        H  0.15046132  0.08702919  0.13655751     0.18700
H162        H  0.12996721  0.41971369  0.10244146     0.18700
N163        N  0.05479947  0.40065165  0.12937292    -0.88000
H164        H  0.22078429  0.11364953  0.09285473     0.36100
H165        H  0.25848080  0.11264105  0.11228464     0.41200
H166        H  0.06838415  0.37645249  0.13409035     0.40800
H167        H  0.03433813  0.38624318  0.11549292     0.35700
C168        C  0.38285957  0.32413816  0.25849511    -0.26000
C169        C  0.33873754  0.32601964  0.26423588    -0.14100
C170        C  0.32941441  0.36339110  0.25540360     0.36500
C171        C  0.36326918  0.39635503  0.24028443    -0.25500
C172        C  0.40602127  0.39271751  0.23359547    -0.14700
C173        C  0.41716016  0.35766881  0.24351334     0.37600
N174        N  0.46279451  0.35578660  0.23822689    -0.89000
H175        H  0.38950748  0.29506130  0.26515241     0.18700
H176        H  0.35496168  0.42394727  0.23321779     0.18700
N177        N  0.28558456  0.36828879  0.26102170    -0.88000
H178        H  0.46467666  0.32733712  0.24673830     0.36100
H179        H  0.49415443  0.39023708  0.24291707     0.41200
H180        H  0.26401980  0.34327121  0.27294998     0.40800
H181        H  0.26190483  0.35860137  0.24791179     0.35700
C182        C  0.13697013  0.08877675  0.24238714    -0.26000
C183        C  0.10718982  0.10472548  0.23115489    -0.14100
C184        C  0.11173311  0.15249318  0.23583356     0.36500
C185        C  0.14549112  0.18266744  0.25163129    -0.25500
C186        C  0.17594543  0.16701607  0.26231125    -0.14700
C187        C  0.17183402  0.11989988  0.25760112     0.37600
N188        N  0.20486250  0.10475323  0.26748411    -0.89000
H189        H  0.13435842  0.05250037  0.23898120     0.18700
H190        H  0.15000559  0.21976835  0.25499656     0.18700
N191        N  0.08362069  0.17110439  0.22416360    -0.88000
H192        H  0.22621952  0.09922991  0.25584112     0.36100
H193        H  0.18192943  0.06992653  0.27488404     0.41200
H194        H  0.09804226  0.17785752  0.20888570     0.40800
H195        H  0.09046520  0.20618485  0.23001716     0.35700
C196        C  0.12852789  0.14808514  0.30792165    -0.26000
C197        C  0.17803657  0.15415524  0.30852212    -0.14100
C198        C  0.18551621  0.11695284  0.31886081     0.36500
C199        C  0.14352002  0.07544402  0.32841594    -0.25500
C200        C  0.09409091  0.06947060  0.32773746    -0.14700
C201        C  0.08656995  0.10650452  0.31737807     0.37600
N202        N  0.03743013  0.10389958  0.31639383    -0.89000
H203        H  0.12243191  0.17630625  0.30006148     0.18700
H204        H  0.14951465  0.04738436  0.33647374     0.18700
N205        N  0.23452753  0.11926960  0.31973353    -0.88000
H206        H  0.04057320  0.13558165  0.32428741     0.36100
H207        H  0.00890738  0.07215939  0.32414308     0.41200
H208        H  0.26256941  0.15002650  0.31136502     0.40800
H209        H  0.23076021  0.08679482  0.31230716     0.35700
C210        C  0.39176334  0.31983413  0.31030237    -0.26000
C211        C  0.34494509  0.31967832  0.30996024    -0.14100
C212        C  0.34234702  0.36169752  0.31824995     0.36500
C213        C  0.38668930  0.40283238  0.32641675    -0.25500
C214        C  0.43354365  0.40306781  0.32684955    -0.14700
C215        C  0.43614336  0.36091237  0.31861919     0.37600
N216        N  0.48262139  0.35815350  0.31853624    -0.89000
H217        H  0.39398204  0.28791581  0.30376249     0.18700
H218        H  0.38429263  0.43462263  0.33296711     0.18700
N219        N  0.29558196  0.36389976  0.31886184    -0.88000
H220        H  0.47656950  0.32759108  0.32800970     0.36100
H221        H  0.51317702  0.39054725  0.32503558     0.41200
H222        H  0.26452212  0.33077200  0.31309101     0.40800
H223        H  0.30041926  0.39359608  0.30910634     0.35700
C224        C  0.36045623  0.48029601  0.96836235    -0.26000
C225        C  0.34750499  0.51864393  0.97109528    -0.14100
C226        C  0.37878045  0.56067618  0.98390186     0.36500
C227        C  0.42202358  0.56369655  0.99364800    -0.25500
C228        C  0.43488519  0.52534037  0.99094817    -0.14700
C229        C  0.40391330  0.48331340  0.97805036     0.37600
N230        N  0.41628139  0.44351193  0.97510378    -0.89000
H231        H  0.33636286  0.44771068  0.95870398     0.18700
H232        H  0.44563113  0.59612043  0.00348410     0.18700
N233        N  0.36747161  0.60106718  0.98663639    -0.88000
H234        H  0.38999847  0.41559996  0.96504589     0.36100
H235        H  0.41247611  0.42598213  0.98956862     0.41200
H236        H  0.40406890  0.13859053  0.98112448     0.40800
H237        H  0.36730106  0.10951172  0.00233152     0.35700
C238        C  0.17843818  0.06655135  0.97071952    -0.26000
C239        C  0.18208923  0.52149765  0.97258057    -0.14100
C240        C  0.14188529  0.47703273  0.98129640     0.36500
C241        C  0.10146621  0.47893181  0.99143837    -0.25500
C242        C  0.10066092  0.52473243  0.99297870    -0.14700
C243        C  0.13723093  0.06720665  0.98072918     0.37600
N244        N  0.13274241  0.11202954  0.97918426    -0.89000
H245        H  0.20512991  0.09917503  0.96159007     0.18700
H246        H  0.07060388  0.44455496  0.99822965     0.18700
N247        N  0.14170220  0.42978790  0.97951457    -0.88000
H248        H  0.13253077  0.12526122  0.99427347     0.36100
H249        H  0.09789758  0.10249875  0.97204706     0.41200
H250        H  0.14035914  0.41595977  0.99459134     0.40800
H251        H  0.10819494  0.40395931  0.97176518     0.35700
C252        C  0.31742520  0.46091983  0.91169240    -0.26000
C253        C  0.33496740  0.50438428  0.92430023    -0.14100
C254        C  0.39106770  0.05471000  0.92104963     0.36500
C255        C  0.42300473  0.05211890  0.90560457    -0.25500
C256        C  0.39864926  0.49934725  0.89304838    -0.14700
C257        C  0.34864136  0.45821110  0.89595638     0.37600
N258        N  0.32853791  0.41481037  0.88244848    -0.89000
H259        H  0.27849294  0.42986817  0.91351615     0.18700
H260        H  0.45983109  0.08552474  0.90264907     0.18700
N261        N  0.40693984  0.10095731  0.93238660    -0.88000
H262        H  0.29589579  0.41143452  0.87513397     0.36100
H263        H  0.31716671  0.38253531  0.89168419     0.41200
H264        H  0.44111835  0.11020874  0.94008806     0.40800
H265        H  0.41452291  0.12976754  0.92162805     0.35700
C266        C  0.15969611  0.56041651  0.89834964    -0.26000
C267        C  0.11204312  0.51626579  0.89551656    -0.14100
C268        C  0.09722668  0.47522085  0.90975097     0.36500
C269        C  0.13200711  0.47744895  0.92477612    -0.25500
C270        C  0.18087285  0.52003884  0.92631512    -0.14700
C271        C  0.19398921  0.56254004  0.91362564     0.37600
N272        N  0.24284168  0.60748735  0.91592495    -0.89000
H273        H  0.17126621  0.59298901  0.88825025     0.18700
H274        H  0.12469428  0.95412691  0.93779947     0.18700
N275        N  0.04918018  0.93798453  0.91291290    -0.88000
H276        H  0.26213251  0.61503765  0.90160055     0.36100
H277        H  0.23647857  0.63771377  0.91935751     0.41200
H278        H  0.04282281  0.41152821  0.89531931     0.40800
H279        H  0.01971749  0.44182070  0.91086828     0.35700
C280        C  0.05063992  0.18066386  0.77437193    -0.26000
C281        C  0.00200288  0.16990693  0.76750011    -0.14100
C282        C  0.44902339  0.12799339  0.77910565     0.36500
C283        C  0.45543499  0.09722610  0.79351480    -0.25500
C284        C  0.01209359  0.10692436  0.79736713    -0.14700
C285        C  0.05635100  0.14923195  0.78901989     0.37600
N286        N  0.10667368  0.16090945  0.79568399    -0.89000
H287        H  0.08414931  0.21461452  0.76873849     0.18700
H288        H  0.42168575  0.06747002  0.80119960     0.18700
N289        N  0.39822449  0.11874452  0.77502905    -0.88000
H290        H  0.13470867  0.19419940  0.78852735     0.36100
H291        H  0.11282259  0.13168096  0.79034372     0.41200
H292        H  0.39126012  0.11232467  0.75901982     0.40800
H293        H  0.39618578  0.15114109  0.77909746     0.35700
C294        C  0.03151466  0.37655909  0.76849149    -0.26000
C295        C  0.99076500  0.32648577  0.76940885    -0.14100
C296        C  0.44062412  0.31210915  0.78412097     0.36500
C297        C  0.44586451  0.34898943  0.79868937    -0.25500
C298        C  0.99763910  0.39959355  0.79881386    -0.14700
C299        C  0.03493018  0.41332121  0.78282529     0.37600
N300        N  0.07630216  0.46447783  0.78099664    -0.89000
H301        H  0.06174403  0.38687504  0.75703021     0.18700
H302        H  0.41555211  0.33940565  0.81005536     0.18700
N303        N  0.39554950  0.26299566  0.78431300    -0.88000
H304        H  0.07451514  0.47792232  0.76615822     0.36100
H305        H  0.11076886  0.46392862  0.78201399     0.41200
H306        H  0.36379461  0.26793905  0.78211456     0.40800
H307        H  0.39225849  0.24700281  0.79909450     0.35700
C308        C  0.03728705  0.12005346  0.70835833    -0.26000
C309        C  0.99026582  0.07986996  0.70146504    -0.14100
C310        C  0.44358454  0.07981917  0.70802483     0.36500
C311        C  0.44418261  0.12165628  0.71777506    -0.25500
C312        C  0.99478519  0.16586197  0.72111381    -0.14700
C313        C  0.04000535  0.16321943  0.71806608     0.37600
N314        N  0.08838554  0.20442334  0.72483605    -0.89000
H315        H  0.07193904  0.11798960  0.70586220     0.18700
H316        H  0.40823152  0.12046192  0.72123099     0.18700
N317        N  0.39574252  0.03619635  0.70270533    -0.88000
H318        H  0.11794323  0.19663021  0.72152193     0.36100
H319        H  0.09580875  0.23644222  0.71605866     0.41200
H320        H  0.37440923  0.02200644  0.71645405     0.40800
H321        H  0.37585808  0.04816413  0.69300298     0.35700
C322        C  0.43833872  0.37226848  0.71227040    -0.26000
C323        C  0.99065925  0.41271106  0.70270243    -0.14100
C324        C  0.03627668  0.40997284  0.70438654     0.36500
C325        C  0.03461155  0.36769750  0.71409684    -0.25500
C326        C  0.98904611  0.32878704  0.72276231    -0.14700
C327        C  0.43604319  0.32967527  0.72196830     0.37600
N328        N  0.38733158  0.29111593  0.72993177    -0.89000
H329        H  0.40370079  0.37489423  0.71116598     0.18700
H330        H  0.06964130  0.36583854  0.71540643     0.18700
N331        N  0.08506432  0.44979551  0.69705762    -0.88000
H332        H  0.37718991  0.30698050  0.74233053     0.36100
H333        H  0.38919758  0.26003154  0.73588021     0.41200
H334        H  0.08222683  0.47983416  0.69053019     0.40800
H335        H  0.09781748  0.43469887  0.68526592     0.35700
C336        C  0.03409288  0.35403235  0.58059894    -0.26000
C337        C  0.98794685  0.32491552  0.59142032    -0.14100
C338        C  0.44871740  0.33453182  0.58814965     0.36500
C339        C  0.45269869  0.36947588  0.57299640    -0.25500
C340        C  0.49804922  0.39750649  0.56133032    -0.14700
C341        C  0.03901386  0.38994840  0.56561376     0.37600
N342        N  0.08652657  0.41847200  0.55443271    -0.89000
H343        H  0.06589192  0.34742020  0.58342783     0.18700
H344        H  0.41948406  0.37370663  0.57005967     0.18700
N345        N  0.40113715  0.30442456  0.59890160    -0.88000
H346        H  0.11277021  0.40693961  0.55874489     0.36100
H347        H  0.10248128  0.45639847  0.55909969     0.41200
H348        H  0.39143617  0.32909784  0.60654404     0.40800
H349        H  0.37289744  0.28405880  0.58776288     0.35700
C350        C  0.02028645  0.15565246  0.58838753    -0.26000
C351        C  0.97502717  0.15806907  0.58958055    -0.14100
C352        C  0.43715538  0.13012803  0.57905872     0.36500
C353        C  0.44352234  0.10037392  0.56389430    -0.25500
C354        C  0.98606941  0.09603138  0.55941161    -0.14700
C355        C  0.02623872  0.12503683  0.57352382     0.37600
N356        N  0.07346775  0.12409970  0.57278274    -0.89000
H357        H  0.05208567  0.17923167  0.59858020     0.18700
H358        H  0.41174663  0.07760055  0.55357380     0.18700
N359        N  0.38856385  0.12870301  0.58026909    -0.88000
H360        H  0.07910316  0.11223024  0.58737557     0.36100
H361        H  0.10327055  0.16118440  0.57023560     0.41200
H362        H  0.38754568  0.15097319  0.59254329     0.40800
H363        H  0.36070063  0.09137876  0.58381980     0.35700
C364        C  0.02525472  0.12055902  0.65504843    -0.26000
C365        C  0.98100858  0.07241534  0.65570437    -0.14100
C366        C  0.43465399  0.06854792  0.64839438     0.36500
C367        C  0.43452648  0.11008619  0.63860360    -0.25500
C368        C  0.97988632  0.15549774  0.63592893    -0.14700
C369        C  0.02518396  0.16213078  0.64532061     0.37600
N370        N  0.07141310  0.21055748  0.64427707    -0.89000
H371        H  0.05997373  0.12578387  0.66241104     0.18700
H372        H  0.39988801  0.10455251  0.63104863     0.18700
N373        N  0.38785197  0.02047113  0.64833515    -0.88000
H374        H  0.10193250  0.20836905  0.65100922     0.36100
H375        H  0.06590741  0.23616655  0.65338523     0.41200
H376        H  0.39138066  0.99293594  0.65674605     0.40800
H377        H  0.35982605  0.02541373  0.65603493     0.35700
C378        C  0.02981612  0.41236252  0.64951672    -0.26000
C379        C  0.98359981  0.40751664  0.65702103    -0.14100
C380        C  0.43351791  0.36045384  0.65602180     0.36500
C381        C  0.43679694  0.32029073  0.64660387    -0.25500
C382        C  0.98561894  0.32436947  0.63778635    -0.14700
C383        C  0.03152706  0.37142153  0.63996957     0.37600
N384        N  0.08041659  0.37887862  0.63301737    -0.89000
H385        H  0.06503280  0.44821813  0.65129656     0.18700
H386        H  0.40235416  0.28363593  0.64510424     0.18700
N387        N  0.38405414  0.35133428  0.66300434    -0.88000
H388        H  0.09327473  0.40565245  0.62095415     0.36100
H389        H  0.07757134  0.34565510  0.62683782     0.41200
H390        H  0.38562560  0.38407753  0.66911065     0.40800
H391        H  0.37198488  0.32467280  0.67508155     0.35700
C392        C  0.13573603  0.15343724  0.44014932    -0.26000
C393        C  0.18324785  0.15577676  0.43826313    -0.14100
C394        C  0.19423938  0.12388548  0.45076716     0.36500
C395        C  0.15821524  0.09245052  0.46569340    -0.25500
C396        C  0.11143672  0.09187100  0.46834349    -0.14700
C397        C  0.09967057  0.12169405  0.45491192     0.37600
N398        N  0.05145416  0.12054099  0.45628708    -0.89000
H399        H  0.12724934  0.17779631  0.43056174     0.18700
H400        H  0.16740758  0.06899671  0.47552069     0.18700
N401        N  0.24161879  0.12302879  0.44902669    -0.88000
H402        H  0.03355050  0.10957037  0.44172491     0.36100
H403        H  0.05861006  0.15738699  0.45942280     0.41200
H404        H  0.26493019  0.14693083  0.43714414     0.40800
H405        H  0.23255135  0.08624949  0.44459775     0.35700
C406        C  0.38558661  0.33740326  0.43801405    -0.26000
C407        C  0.33435413  0.32534767  0.43650027    -0.14100
C408        C  0.31629602  0.35247947  0.44846988     0.36500
C409        C  0.34914519  0.38907437  0.46285146    -0.25500
C410        C  0.39961119  0.39888020  0.46546774    -0.14700
C411        C  0.41848989  0.37415683  0.45227682     0.37600
N412        N  0.47082381  0.38571859  0.45342975    -0.89000
H413        H  0.39958471  0.31686926  0.42866387     0.18700
H414        H  0.33464149  0.40855296  0.47257708     0.18700
N415        N  0.26406454  0.34133692  0.44641787    -0.88000
H416        H  0.48754806  0.39805428  0.43868085     0.36100
H417        H  0.47122223  0.35222382  0.45695039     0.41200
H418        H  0.25946575  0.35083529  0.43119301     0.40800
H419        H  0.25661550  0.36426472  0.45644859     0.35700
C420        C  0.17196242  0.10452693  0.39290569    -0.26000
C421        C  0.17679080  0.15308596  0.39214358    -0.14100
C422        C  0.13786562  0.15912342  0.38230658     0.36500
C423        C  0.09652649  0.11697927  0.37287696    -0.25500
C424        C  0.09222998  0.06875044  0.37342012    -0.14700
C425        C  0.13001058  0.06243374  0.38368120     0.37600
N426        N  0.12643451  0.01352493  0.38431175    -0.89000
H427        H  0.20098363  0.09931916  0.40072701     0.18700
H428        H  0.06745720  0.12192483  0.36495620     0.18700
N429        N  0.13837909  0.20686973  0.38178060    -0.88000
H430        H  0.12614331  0.00372151  0.39998801     0.36100
H431        H  0.15938664  0.01662694  0.37728107     0.41200
H432        H  0.16975127  0.23540857  0.38968536     0.40800
H433        H  0.10585027  0.20201393  0.38982997     0.35700
C434        C  0.42327851  0.35440605  0.37174271    -0.26000
C435        C  0.42939187  0.40345174  0.37224028    -0.14100
C436        C  0.39102321  0.41081113  0.38184978     0.36500
C437        C  0.34775660  0.36932493  0.39068252    -0.25500
C438        C  0.34187928  0.32032732  0.39028357    -0.14700
C439        C  0.38014007  0.31300289  0.38059067     0.37600
N440        N  0.37688489  0.26420102  0.38006389    -0.89000
H441        H  0.45232390  0.34828160  0.36434954     0.18700
H442        H  0.31890778  0.37548074  0.39825183     0.18700
N443        N  0.39478114  0.45981415  0.38267542    -0.88000
H444        H  0.34384333  0.23902796  0.37191161     0.36100
H445        H  0.37372992  0.25114299  0.39540460     0.41200
H446        H  0.39849403  0.47359213  0.36744357     0.40800
H447        H  0.42776483  0.48443115  0.39098679     0.35700
C448        C  0.30713841  0.77719930  0.40378566     0.02600
C449        C  0.30317221  0.77867211  0.42580838     0.02500
C450        C  0.26397777  0.73695217  0.43623482    -0.18000
C451        C  0.22630089  0.69549901  0.42532638     0.02600
C452        C  0.22725786  0.69500914  0.40330864     0.02500
C453        C  0.26872353  0.73529953  0.39270366    -0.18000
H454        H  0.27029576  0.73470958  0.37577987     0.04600
H455        H  0.26185538  0.73735699  0.45317088     0.04600
C456        C  0.97662816  0.77730722  0.62788474     0.02600
C457        C  0.98211110  0.78015178  0.60596257     0.02500
C458        C  0.98081344  0.74002173  0.59475463    -0.18000
C459        C  0.97533795  0.69704954  0.60492412     0.02600
C460        C  0.97171807  0.69416003  0.62689525     0.02500
C461        C  0.97175272  0.73418554  0.63828665    -0.18000
H462        H  0.96923273  0.73229933  0.65519901     0.04600
H463        H  0.46517684  0.73750475  0.57835148     0.04600
O464        O  0.44733792  0.53482221  0.53256959    -0.57500
C465        C  0.43489228  0.93034774  0.48519439     0.75100
O466        O  0.08024362  0.53336329  0.49577499    -0.58700
C467        C  0.98939078  0.56393466  0.54411364     0.75100
C468        C  0.49710111  0.93275183  0.54759267     0.77500
Cd469      Cd  0.00085564  0.99604714  0.51493068     1.37500
O470        O  0.42154009  0.95847757  0.49508128    -0.57500
O471        O  0.45826151  0.93655678  0.54282405    -0.56300
C472        C  0.07247167  0.56238232  0.48390647     0.77400
O473        O  0.04214599  0.95984714  0.53701301    -0.58700
O474        O  0.47697172  0.93358573  0.49044121    -0.57100
O475        O  0.03059248  0.56317568  0.54078102    -0.57100
O476        O  0.03111716  0.56308879  0.48685657    -0.56300
C477        C  0.00182537  0.79034201  0.75463784     0.02600
C478        C  0.99702485  0.78971001  0.73271615     0.02500
C479        C  0.99505911  0.74887075  0.72117306    -0.18000
C480        C  0.99863532  0.70939206  0.73135334     0.02600
C481        C  0.00414533  0.71135819  0.75330615     0.02500
C482        C  0.00561176  0.75152852  0.76457886    -0.18000
H483        H  0.00923974  0.75231438  0.78147094     0.04600
H484        H  0.99096906  0.74794893  0.70433004     0.04600
O485        O  0.46720773  0.92610827  0.82833912    -0.57500
C486        C  0.43311946  0.50006601  0.87635681     0.75100
O487        O  0.08961332  0.55331537  0.86689109    -0.58700
C488        C  0.00943296  0.93345646  0.81623747     0.75100
C489        C  0.50728876  0.57511443  0.81574602     0.77500
Cd490      Cd  0.01270021  0.00649081  0.84572217     1.37500
O491        O  0.43149285  0.96768635  0.86660974    -0.57500
O492        O  0.46836122  0.53260742  0.81974282    -0.56300
C493        C  0.08174075  0.01349693  0.87772409     0.77400
O494        O  0.05502056  0.58733482  0.82426346    -0.58700
O495        O  0.47149535  0.54152137  0.87078500    -0.57100
O496        O  0.05044934  0.97359939  0.82082464    -0.57100
O497        O  0.04137812  0.97242068  0.87348902    -0.56300
C498        C  0.22697380  0.02288109  0.96033664     0.02600
C499        C  0.22627105  0.02169329  0.93829940     0.02500
C500        C  0.26420959  0.01714337  0.92746061    -0.18000
C501        C  0.30431389  0.01616750  0.93790065     0.02600
C502        C  0.30707600  0.01995598  0.95990992     0.02500
C503        C  0.26760611  0.02230282  0.97098507    -0.18000
H504        H  0.26860637  0.02391293  0.98792259     0.04600
H505        H  0.26279683  0.01483714  0.91051833     0.04600
C506        C  0.29908540  0.77708944  0.27209390     0.02600
C507        C  0.30328450  0.77583552  0.29401327     0.02500
C508        C  0.26461589  0.73439877  0.30531386    -0.18000
C509        C  0.22213351  0.69445290  0.29495967     0.02600
C510        C  0.21856599  0.69717651  0.27300779     0.02500
C511        C  0.25722430  0.73784170  0.26196098    -0.18000
H512        H  0.25437162  0.73932659  0.24509411     0.04600
H513        H  0.26723389  0.73356297  0.32218535     0.04600
C514        C  0.47350543  0.94345363  0.33675208     0.02600
C515        C  0.47358842  0.94372647  0.35887378     0.02500
C516        C  0.00897729  0.98676869  0.37203455    -0.18000
C517        C  0.05631239  0.52604034  0.36170646     0.02600
C518        C  0.05589409  0.52525260  0.33958751     0.02500
C519        C  0.01255726  0.98600849  0.32827472    -0.18000
H520        H  0.01388511  0.98576579  0.31134065     0.04600
H521        H  0.00784984  0.98689086  0.38897147     0.04600
O522        O  0.46597318  0.53880508  0.16550889    -0.57500
C523        C  0.07014668  0.56169892  0.21352631     0.75100
O524        O  0.46950614  0.91870255  0.20187288    -0.58700
C525        C  0.44400523  0.01652607  0.15394098     0.75100
C526        C  0.06976738  0.49111812  0.15239602     0.77500
Cd527      Cd  0.00447340  0.00165703  0.18402482     1.37500
O528        O  0.03767072  0.56995255  0.20423014    -0.57500
O529        O  0.07043742  0.53122072  0.15852160    -0.56300
C530        C  0.43605888  0.92403168  0.21203167     0.77400
O531        O  0.04096586  0.96019334  0.16155097    -0.58700
O532        O  0.07153966  0.52218190  0.20807818    -0.57100
O533        O  0.44321869  0.97468461  0.15633987    -0.57100
O534        O  0.43319157  0.96348064  0.20805208    -0.56300
C535        C  0.21798522  0.50344298  0.09197488     0.02600
C536        C  0.22826167  0.02759525  0.07085615     0.02500
C537        C  0.27236288  0.03419088  0.06019089    -0.18000
C538        C  0.31247381  0.03240639  0.07089758     0.02600
C539        C  0.30028033  0.50601525  0.09216399     0.02500
C540        C  0.25685688  0.50037111  0.10258506    -0.18000
H541        H  0.25380648  0.49469280  0.11939171     0.04600
H542        H  0.27493629  0.03974162  0.04341560     0.04600
C543        C  0.05930087  0.02443976  0.00413866     0.02600
C544        C  0.05934036  0.02533164  0.02620696     0.02500
C545        C  0.01856181  0.02565879  0.03690795    -0.18000
C546        C  0.48018927  0.03002445  0.02561133     0.02600
C547        C  0.48014995  0.02938115  0.00342641     0.02500
C548        C  0.01790274  0.02234414  0.99318480    -0.18000
H549        H  0.01764084  0.02087272  0.97624800     0.04600
H550        H  0.01854377  0.02621425  0.05385246     0.04600
C551        C  0.98292360  0.95084004  0.66933474     0.02600
C552        C  0.98943854  0.95560582  0.69121913     0.02500
C553        C  0.98796918  0.49397312  0.70117072    -0.18000
C554        C  0.98367977  0.53175611  0.69010959     0.02600
C555        C  0.97936269  0.52856484  0.66805898     0.02500
C556        C  0.98065550  0.48844699  0.65748722    -0.18000
H557        H  0.97809049  0.48643799  0.64057980     0.04600
H558        H  0.99113223  0.49623770  0.71805620     0.04600
C559        C  0.39840288  0.55874196  0.06210110    -0.26000
C560        C  0.35512865  0.03217374  0.05888169    -0.14100
C561        C  0.34576878  0.99291853  0.04446674     0.36500
C562        C  0.38693356  0.99188144  0.03457539    -0.25500
C563        C  0.43775973  0.03026421  0.03792335    -0.14700
C564        C  0.44154953  0.56293281  0.05147919     0.37600
N565        N  0.49142119  0.60629928  0.05476628    -0.89000
H566        H  0.40299456  0.58822154  0.07295168     0.18700
H567        H  0.37905627  0.96112610  0.02385297     0.18700
N568        N  0.29498310  0.95292099  0.03979294    -0.88000
H569        H  0.48944403  0.63096868  0.06574719     0.36100
H570        H  0.50323634  0.62628560  0.04068399     0.41200
H571        H  0.27592471  0.93591069  0.05372390     0.40800
H572        H  0.27504968  0.96822728  0.03221290     0.35700
C573        C  0.13713161  0.98308462  0.05910977    -0.26000
C574        C  0.18547150  0.02709171  0.05903025    -0.14100
C575        C  0.19008533  0.56091331  0.04850679     0.36500
C576        C  0.14948925  0.56329192  0.03863184    -0.25500
C577        C  0.10161204  0.02526654  0.03822024    -0.14700
C578        C  0.09519299  0.98138914  0.04879164     0.37600
N579        N  0.04731912  0.93431593  0.04911326    -0.89000
H580        H  0.13205505  0.94936054  0.06705192     0.18700
H581        H  0.15688968  0.59806514  0.03090700     0.18700
N582        N  0.24037679  0.60451377  0.04852360    -0.88000
H583        H  0.05326884  0.90692718  0.04160093     0.36100
H584        H  0.01894191  0.93656948  0.04064515     0.41200
H585        H  0.23754063  0.14508992  0.05345140     0.40800
H586        H  0.25233614  0.12334896  0.03160568     0.35700
C587        C  0.37979894  0.97893278  0.12565567    -0.26000
C588        C  0.41305624  0.02225270  0.13728734    -0.14100
C589        C  0.40690264  0.55019347  0.13154692     0.43700
C590        C  0.37448101  0.55040025  0.11585380    -0.25500
C591        C  0.34969846  0.02716395  0.10596795    -0.14700
C592        C  0.34799577  0.98084109  0.11032987     0.37600
N593        N  0.31290179  0.93466829  0.09996527    -0.89000
H594        H  0.37729436  0.94264169  0.12881506     0.18700
H595        H  0.37452079  0.58543028  0.11237428     0.18700
N596        N  0.44087315  0.59667878  0.14200732    -0.88000
H597        H  0.32108564  0.93932068  0.08399971     0.36100
H598        H  0.27561396  0.92805715  0.10235910     0.41200
H599        H  0.41885903  0.61092747  0.14886085     0.40800
H600        H  0.46475140  0.62278936  0.13076804     0.35700
C601        C  0.14639863  0.54089492  0.13004864    -0.26000
C602        C  0.10491939  0.49328485  0.13561141    -0.14100
C603        C  0.10638816  0.96117517  0.12667620     0.36500
C604        C  0.14298782  0.96696050  0.11153607    -0.25500
C605        C  0.17604873  0.50117236  0.10485139    -0.14700
C606        C  0.18191531  0.54516002  0.11490770     0.37600
N607        N  0.22456740  0.59440445  0.11048688    -0.89000
H608        H  0.15220018  0.57509649  0.13789639     0.18700
H609        H  0.14198403  0.93350672  0.10490065     0.18700
N610        N  0.06668468  0.91124633  0.13226939    -0.88000
H611        H  0.22419785  0.60165939  0.09454962     0.36100
H612        H  0.25842963  0.59398748  0.11378029     0.41200
H613        H  0.08393479  0.89069533  0.13758762     0.40800
H614        H  0.04600730  0.89344766  0.11876521     0.35700
C615        C  0.38169888  0.81906742  0.25307737    -0.26000
C616        C  0.33666962  0.81912728  0.25888325    -0.14100
C617        C  0.32422350  0.85354292  0.24917695     0.36500
C618        C  0.35743602  0.88726209  0.23409064    -0.25500
C619        C  0.40235182  0.88699312  0.22801873    -0.14700
C620        C  0.41483571  0.85269023  0.23778898     0.37600
N621        N  0.46088185  0.85190723  0.23219503    -0.89000
H622        H  0.39024219  0.79160298  0.26010690     0.18700
H623        H  0.34741123  0.91340422  0.22679086     0.18700
N624        N  0.27815886  0.85510890  0.25402654    -0.88000
H625        H  0.46343515  0.82345266  0.24041254     0.36100
H626        H  0.49193488  0.88643215  0.23699998     0.41200
H627        H  0.25709336  0.83004349  0.26600408     0.40800
H628        H  0.25506235  0.84337273  0.24070131     0.35700
C629        C  0.13307752  0.57900744  0.24193111    -0.26000
C630        C  0.10477788  0.59564775  0.23004253    -0.14100
C631        C  0.11068275  0.64420351  0.23407469     0.36500
C632        C  0.14534774  0.67506822  0.24948347    -0.25500
C633        C  0.17504612  0.65910314  0.26056785    -0.14700
C634        C  0.16845210  0.61053035  0.25694582     0.37600
N635        N  0.19931408  0.59408273  0.26776883    -0.89000
H636        H  0.12884303  0.54178825  0.23921047     0.18700
H637        H  0.15126610  0.71295751  0.25217900     0.18700
N638        N  0.08307425  0.66289623  0.22210747    -0.88000
H639        H  0.21979142  0.58578148  0.25666075     0.36100
H640        H  0.17479364  0.56051026  0.27571484     0.41200
H641        H  0.09704003  0.66828820  0.20677553     0.40800
H642        H  0.09083657  0.69861116  0.22752665     0.35700
C643        C  0.13071602  0.64433364  0.30615124    -0.26000
C644        C  0.18064848  0.65144657  0.30704290    -0.14100
C645        C  0.18890945  0.61590101  0.31835777     0.36500
C646        C  0.14733547  0.57496488  0.32841907    -0.25500
C647        C  0.09741896  0.56772638  0.32736017    -0.14700
C648        C  0.08911977  0.60319482  0.31607310     0.37600
N649        N  0.03954157  0.59943167  0.31455026    -0.89000
H650        H  0.12392340  0.67125378  0.29758288     0.18700
H651        H  0.15406186  0.54823920  0.33717527     0.18700
N652        N  0.23828075  0.61913749  0.31967997    -0.88000
H653        H  0.04200850  0.63167616  0.32168030     0.36100
H654        H  0.01146761  0.56831800  0.32275131     0.41200
H655        H  0.26601939  0.64924203  0.31093368     0.40800
H656        H  0.23500080  0.58616330  0.31293617     0.35700
C657        C  0.39326605  0.81946383  0.30690539    -0.26000
C658        C  0.34631084  0.81878070  0.30520922    -0.14100
C659        C  0.34222156  0.86037400  0.31312809     0.36500
C660        C  0.38466442  0.90072143  0.32289634    -0.25500
C661        C  0.43135582  0.90108324  0.32490842    -0.14700
C662        C  0.43587692  0.86003808  0.31657710     0.37600
N663        N  0.48275395  0.85811900  0.31758255    -0.89000
H664        H  0.39689773  0.78815412  0.30056692     0.18700
H665        H  0.38104905  0.93213750  0.32908787     0.18700
N666        N  0.29581518  0.86304187  0.31167765    -0.88000
H667        H  0.47575254  0.82680918  0.32675514     0.36100
H668        H  0.51191342  0.89007515  0.32495439     0.41200
H669        H  0.26618230  0.83065899  0.30475680     0.40800
H670        H  0.30332272  0.89365185  0.30194195     0.35700
C671        C  0.36295238  0.98313982  0.96877884    -0.26000
C672        C  0.35100289  0.02217004  0.97137363    -0.14100
C673        C  0.38262687  0.06431930  0.98396967     0.36500
C674        C  0.42538075  0.06676278  0.99381648    -0.25500
C675        C  0.43714972  0.02760366  0.99136702    -0.14700
C676        C  0.40601683  0.98562826  0.97849478     0.37600
N677        N  0.41797075  0.94554098  0.97553140    -0.89000
H678        H  0.33852055  0.95061462  0.95915056     0.18700
H679        H  0.44935636  0.09923135  0.00356876     0.18700
N680        N  0.37206828  0.10528445  0.98639000    -0.88000
H681        H  0.39171880  0.91788203  0.96538790     0.36100
H682        H  0.41381060  0.92780505  0.98997651     0.41200
H683        H  0.39917347  0.63477637  0.98150532     0.40800
H684        H  0.36260459  0.60469610  0.00262706     0.35700
C685        C  0.18139846  0.56731462  0.97398282    -0.26000
C686        C  0.18539306  0.02416658  0.97230288    -0.14100
C687        C  0.15078032  0.98196721  0.98420820     0.36500
C688        C  0.10910728  0.98223260  0.99402008    -0.25500
C689        C  0.10191804  0.02446116  0.99239541    -0.14700
C690        C  0.14125010  0.56966435  0.98422009     0.37600
N691        N  0.14320284  0.61803088  0.98546505    -0.89000
H692        H  0.21221282  0.60141099  0.96699931     0.18700
H693        H  0.08233972  0.94943780  0.00303720     0.18700
N694        N  0.15734525  0.93840216  0.98597373    -0.88000
H695        H  0.17560084  0.64240474  0.99418826     0.36100
H696        H  0.11171475  0.61558608  0.99345655     0.41200
H697        H  0.16054407  0.93230590  0.00184107     0.40800
H698        H  0.12431069  0.90690291  0.98024730     0.35700
C699        C  0.32766107  0.96721969  0.91363986    -0.26000
C700        C  0.34275046  0.01224436  0.92479671    -0.14100
C701        C  0.38481566  0.54516969  0.92150694     0.36500
C702        C  0.41643170  0.54206425  0.90616686    -0.25500
C703        C  0.40729200  0.00755211  0.89375202    -0.14700
C704        C  0.35946877  0.96435216  0.89825558     0.37600
N705        N  0.34235907  0.91779090  0.88700862    -0.89000
H706        H  0.29020666  0.93451661  0.91648621     0.18700
H707        H  0.45477255  0.57401074  0.90419708     0.18700
N708        N  0.40255753  0.59078097  0.93350658    -0.88000
H709        H  0.30764440  0.90851552  0.87979156     0.36100
H710        H  0.33544018  0.88920686  0.89781012     0.41200
H711        H  0.43577791  0.59745423  0.94136346     0.40800
H712        H  0.41234758  0.62090167  0.92315726     0.35700
C713        C  0.16531633  0.05936469  0.89579042    -0.26000
C714        C  0.11562963  0.01730062  0.89524538    -0.14100
C715        C  0.10024498  0.98013031  0.91132295     0.36500
C716        C  0.13588313  0.98398291  0.92627692    -0.25500
C717        C  0.18646278  0.02413607  0.92565731    -0.14700
C718        C  0.20069538  0.06291404  0.91075855     0.37600
N719        N  0.25179252  0.10529266  0.91044803    -0.89000
H720        H  0.17761572  0.08890828  0.88406563     0.18700
H721        H  0.12162901  0.44479261  0.93468161     0.18700
N722        N  0.04753520  0.43073530  0.90942753    -0.88000
H723        H  0.26798629  0.10622329  0.89582836     0.36100
H724        H  0.24954096  0.13848884  0.91207234     0.41200
H725        H  0.04148509  0.91476624  0.89979137     0.40800
H726        H  0.02346351  0.95184945  0.91358404     0.35700
C727        C  0.05515963  0.68325628  0.77373888    -0.26000
C728        C  0.00736754  0.67198037  0.76563448    -0.14100
C729        C  0.45168970  0.62684352  0.77635626     0.36500
C730        C  0.45677695  0.59634255  0.79135087    -0.25500
C731        C  0.01399786  0.61143260  0.79755981    -0.14700
C732        C  0.05915924  0.65319841  0.78951267     0.37600
N733        N  0.10862395  0.66592030  0.79766635    -0.89000
H734        H  0.08926738  0.71693089  0.76830236     0.18700
H735        H  0.42226147  0.56413268  0.79742548     0.18700
N736        N  0.40119370  0.61495490  0.77010704    -0.88000
H737        H  0.13736973  0.69902164  0.79065008     0.36100
H738        H  0.11594457  0.63678545  0.79334874     0.41200
H739        H  0.39801169  0.60883835  0.75399411     0.40800
H740        H  0.39628989  0.64609909  0.77344087     0.35700
C741        C  0.04858936  0.87425452  0.77213720    -0.26000
C742        C  0.00209511  0.83017172  0.76808401    -0.14100
C743        C  0.45035009  0.81518575  0.78403820     0.36500
C744        C  0.45540026  0.85156181  0.79875646    -0.25500
C745        C  0.00786429  0.89855943  0.79950634    -0.14700
C746        C  0.05195809  0.90853762  0.78769807     0.37600
N747        N  0.10046606  0.95286019  0.79159833    -0.89000
H748        H  0.08283427  0.88119536  0.76367593     0.18700
H749        H  0.42514160  0.84139899  0.81020201     0.18700
N750        N  0.40604764  0.76551565  0.78450863    -0.88000
H751        H  0.11298689  0.97373825  0.77772854     0.36100
H752        H  0.12673278  0.94108428  0.79555133     0.41200
H753        H  0.37357512  0.76945963  0.78281933     0.40800
H754        H  0.40418196  0.74964785  0.79920673     0.35700
C755        C  0.03402322  0.61455243  0.70861027    -0.26000
C756        C  0.98632714  0.57600486  0.70150234    -0.14100
C757        C  0.43671806  0.57973175  0.70563424     0.36500
C758        C  0.44028594  0.62376070  0.71462380    -0.25500
C759        C  0.99604332  0.66604971  0.71929655    -0.14700
C760        C  0.03941036  0.65975140  0.71728098     0.37600
N761        N  0.08875154  0.69951036  0.72394640    -0.89000
H762        H  0.06737386  0.60988151  0.70681624     0.18700
H763        H  0.40610067  0.62712404  0.71608582     0.18700
N764        N  0.38822040  0.53991550  0.69848384    -0.88000
H765        H  0.11673255  0.68906210  0.72139801     0.36100
H766        H  0.09854375  0.73117976  0.71451300     0.41200
H767        H  0.36298744  0.52729990  0.71122375     0.40800
H768        H  0.37407616  0.55544261  0.68756496     0.35700
C769        C  0.44748081  0.88102776  0.71469966    -0.26000
C770        C  0.99252613  0.91547123  0.70340599    -0.14100
C771        C  0.03987293  0.91774860  0.70770535     0.36500
C772        C  0.03990195  0.87586454  0.71702737    -0.25500
C773        C  0.99402189  0.83151917  0.72196562    -0.14700
C774        C  0.44369021  0.83719439  0.72380026     0.37600
N775        N  0.39577410  0.80161375  0.73337467    -0.89000
H776        H  0.41446696  0.88656953  0.71513561     0.18700
H777        H  0.07621525  0.87791182  0.72044358     0.18700
N778        N  0.08847275  0.96152154  0.70279094    -0.88000
H779        H  0.39047806  0.81929563  0.74646367     0.36100
H780        H  0.39590085  0.76907773  0.73858884     0.41200
H781        H  0.08413557  0.99042170  0.69598309     0.40800
H782        H  0.10674834  0.95042747  0.69170969     0.35700
C783        C  0.03678048  0.85986451  0.58664759    -0.26000
C784        C  0.98801422  0.82381636  0.59382869    -0.14100
C785        C  0.44472278  0.83961795  0.59266780     0.36500
C786        C  0.45127372  0.87643513  0.57784088    -0.25500
C787        C  0.49411018  0.89780635  0.56435108    -0.14700
C788        C  0.04275782  0.89656606  0.57180913     0.37600
N789        N  0.09312348  0.93321807  0.56460631    -0.89000
H790        H  0.07001265  0.85820763  0.59214540     0.18700
H791        H  0.42198824  0.88728841  0.57654104     0.18700
N792        N  0.39965002  0.81666335  0.60549778    -0.88000
H793        H  0.12096252  0.92700454  0.57159844     0.36100
H794        H  0.10020959  0.96895760  0.56969181     0.41200
H795        H  0.39808016  0.84558569  0.61388478     0.40800
H796        H  0.36771061  0.79982958  0.59571135     0.35700
C797        C  0.02087816  0.65501905  0.58997553    -0.26000
C798        C  0.97535646  0.65686044  0.59182321    -0.14100
C799        C  0.42754874  0.62814114  0.57760525     0.36500
C800        C  0.43279340  0.59654087  0.56286079    -0.25500
C801        C  0.98502578  0.59504221  0.56110667    -0.14700
C802        C  0.02601593  0.62416058  0.57490008     0.37600
N803        N  0.07321357  0.62325316  0.57354986    -0.89000
H804        H  0.05330314  0.67907559  0.59978775     0.18700
H805        H  0.40179288  0.57529690  0.55200146     0.18700
N806        N  0.38180495  0.63185240  0.57806034    -0.88000
H807        H  0.07968286  0.61138690  0.58799659     0.36100
H808        H  0.10286314  0.66032395  0.57086666     0.41200
H809        H  0.35072338  0.59549042  0.58059833     0.40800
H810        H  0.37734839  0.64414052  0.56335706     0.35700
C811        C  0.01907907  0.61821763  0.65680921    -0.26000
C812        C  0.97661227  0.56898046  0.65598924    -0.14100
C813        C  0.43037500  0.56381218  0.64692986     0.36500
C814        C  0.43079736  0.60525891  0.63697978    -0.25500
C815        C  0.97253780  0.65169947  0.63789618    -0.14700
C816        C  0.01727606  0.65972518  0.64814089     0.37600
N817        N  0.06077989  0.71004796  0.64960645    -0.89000
H818        H  0.05359114  0.62435561  0.66465245     0.18700
H819        H  0.39711685  0.59927312  0.62846810     0.18700
N820        N  0.38449380  0.51508937  0.64553849    -0.88000
H821        H  0.07458463  0.72225946  0.63446869     0.36100
H822        H  0.09046634  0.70952037  0.65787052     0.41200
H823        H  0.38704028  0.48751425  0.65433076     0.40800
H824        H  0.35445780  0.51865886  0.65210093     0.35700
C825        C  0.02581052  0.90639718  0.65370311    -0.26000
C826        C  0.97992591  0.90611305  0.65828504    -0.14100
C827        C  0.43532994  0.86032906  0.65966682     0.36500
C828        C  0.43646191  0.81849499  0.65071119    -0.25500
C829        C  0.97871067  0.82041945  0.63983759    -0.14700
C830        C  0.02590053  0.86414162  0.64471418     0.37600
N831        N  0.07453314  0.86692453  0.64102248    -0.89000
H832        H  0.06206906  0.93976588  0.65736480     0.18700
H833        H  0.40176499  0.78178122  0.65073362     0.18700
N834        N  0.38779796  0.85221457  0.66859509    -0.88000
H835        H  0.09416923  0.89507075  0.62980059     0.36100
H836        H  0.07036773  0.83305689  0.63495175     0.41200
H837        H  0.39069512  0.88584310  0.67430626     0.40800
H838        H  0.37897212  0.82753874  0.68127891     0.35700
C839        C  0.13976734  0.65884704  0.44047010    -0.26000
C840        C  0.18423398  0.65549970  0.43773493    -0.14100
C841        C  0.19065538  0.61918370  0.44919877     0.36500
C842        C  0.15318402  0.58862385  0.46383343    -0.25500
C843        C  0.10962284  0.59360873  0.46740921    -0.14700
C844        C  0.10253477  0.62847770  0.45518408     0.37600
N845        N  0.05844960  0.63446851  0.45800704    -0.89000
H846        H  0.13500599  0.68688984  0.43175937     0.18700
H847        H  0.15884796  0.56146132  0.47276316     0.18700
N848        N  0.23506663  0.61318064  0.44683549    -0.88000
H849        H  0.03944969  0.62735230  0.44368930     0.36100
H850        H  0.07105673  0.67228042  0.46211065     0.41200
H851        H  0.26017385  0.63751298  0.43545829     0.40800
H852        H  0.22247301  0.57625342  0.44143817     0.35700
C853        C  0.39050870  0.83737191  0.43962306    -0.26000
C854        C  0.33844271  0.82276092  0.43880768    -0.14100
C855        C  0.31887726  0.84626827  0.45226434     0.36500
C856        C  0.35127730  0.88201896  0.46700905    -0.25500
C857        C  0.40294785  0.89508350  0.46848729    -0.14700
C858        C  0.42299878  0.87358491  0.45417442     0.37600
N859        N  0.47628091  0.88826647  0.45431208    -0.89000
H860        H  0.40574332  0.81941676  0.42940677     0.18700
H861        H  0.33574151  0.89882085  0.47770483     0.18700
N862        N  0.26575832  0.83268037  0.45119176    -0.88000
H863        H  0.49154716  0.90274357  0.43954572     0.36100
H864        H  0.47927641  0.85571753  0.45675956     0.41200
H865        H  0.25964608  0.84375574  0.43651305     0.40800
H866        H  0.25728026  0.85292573  0.46228122     0.35700
C867        C  0.17699922  0.60367109  0.39357229    -0.26000
C868        C  0.18442849  0.65307963  0.39158034    -0.14100
C869        C  0.14803145  0.66035689  0.38023721     0.36500
C870        C  0.10592374  0.61824101  0.37111450    -0.25500
C871        C  0.09868354  0.56897495  0.37319319    -0.14700
C872        C  0.13443386  0.56175620  0.38461494     0.37600
N873        N  0.12812949  0.51192887  0.38675366    -0.89000
H874        H  0.20428883  0.59754587  0.40230407     0.18700
H875        H  0.07855025  0.62401813  0.36225222     0.18700
N876        N  0.15184702  0.70934246  0.37783041    -0.88000
H877        H  0.12642722  0.50380269  0.40270654     0.36100
H878        H  0.16062254  0.51245663  0.38048898     0.41200
H879        H  0.18362841  0.73793576  0.38549579     0.40800
H880        H  0.11970708  0.70768038  0.38503436     0.35700
C881        C  0.42946119  0.85459341  0.37212631    -0.26000
C882        C  0.43157114  0.90184283  0.37095485    -0.14100
C883        C  0.39274533  0.90809337  0.38075371     0.36500
C884        C  0.35237829  0.86702975  0.39118640    -0.25500
C885        C  0.34990352  0.81955470  0.39215275    -0.14700
C886        C  0.38927596  0.81360943  0.38265811     0.37600
N887        N  0.39000371  0.76675470  0.38393406    -0.89000
H888        H  0.45934131  0.84961229  0.36483400     0.18700
H889        H  0.32269914  0.87214809  0.39860222     0.18700
N890        N  0.39315060  0.95556873  0.38013038    -0.88000
H891        H  0.35692322  0.73820637  0.37686852     0.36100
H892        H  0.38948813  0.75754262  0.39970606     0.41200
H893        H  0.39353214  0.96572524  0.36450947     0.40800
H894        H  0.42678487  0.98326757  0.38719815     0.35700
C895        C  0.79838109  0.27834546  0.40263885     0.02600
C896        C  0.79285742  0.28004164  0.42454027     0.02500
C897        C  0.75304427  0.23897725  0.43486517    -0.18000
C898        C  0.71693811  0.19659774  0.42394835     0.02600
C899        C  0.71894458  0.19575124  0.40194416     0.02500
C900        C  0.76028679  0.23647259  0.39141604    -0.18000
H901        H  0.76239985  0.23577499  0.37451430     0.04600
H902        H  0.75028372  0.23986208  0.45177485     0.04600
C903        C  0.48268384  0.28429173  0.62689620     0.02600
C904        C  0.48505757  0.28473275  0.60485555     0.02500
C905        C  0.48240035  0.24333598  0.59423595    -0.18000
C906        C  0.47852346  0.20163209  0.60497613     0.02600
C907        C  0.47796299  0.20102044  0.62700906     0.02500
C908        C  0.47933946  0.24233727  0.63786566    -0.18000
H909        H  0.47846030  0.24214223  0.65480548     0.04600
H910        H  0.97635990  0.24003641  0.57568216     0.04600
O911        O  0.95293465  0.03192070  0.53255395    -0.57500
C912        C  0.92764449  0.42878464  0.48389022     0.75100
O913        O  0.58370124  0.03742130  0.49753911    -0.58700
C914        C  0.49432377  0.06818246  0.54510702     0.75100
C915        C  0.99743392  0.43077087  0.54460721     0.77500
Cd916      Cd  0.49585545  0.49911225  0.51461556     1.37500
O917        O  0.91803580  0.46109999  0.49245761    -0.57500
O918        O  0.95781082  0.43376487  0.54049373    -0.56300
C919        C  0.57364869  0.06497367  0.48568449     0.77400
O920        O  0.53881570  0.46285156  0.53504914    -0.58700
O921        O  0.96722240  0.42821762  0.49012079    -0.57100
O922        O  0.53498577  0.06598783  0.54239408    -0.57100
O923        O  0.53194395  0.06460518  0.48919906    -0.56300
C924        C  0.48052617  0.28262107  0.75688975     0.02600
C925        C  0.48246630  0.28390188  0.73481148     0.02500
C926        C  0.48644492  0.24543735  0.72390794    -0.18000
C927        C  0.48906534  0.20639778  0.73478720     0.02600
C928        C  0.48777370  0.20615295  0.75680428     0.02500
C929        C  0.48329795  0.24390196  0.76755403    -0.18000
H930        H  0.48315895  0.24375899  0.78452116     0.04600
H931        H  0.48735101  0.24580553  0.70696859     0.04600
O932        O  0.96466590  0.42763723  0.82727101    -0.57500
C933        C  0.94271483  0.00457660  0.87659853     0.75100
O934        O  0.59400416  0.05028720  0.86430359    -0.58700
C935        C  0.49606894  0.43348925  0.81573879     0.75100
C936        C  0.01417544  0.07484947  0.81446117     0.77500
Cd937      Cd  0.50660887  0.50631994  0.84633087     1.37500
O938        O  0.92910954  0.46787095  0.86490766    -0.57500
O939        O  0.97339796  0.03738993  0.82132940    -0.56300
C940        C  0.58212490  0.51288143  0.87557525     0.77400
O941        O  0.54998461  0.08660825  0.82508056    -0.58700
O942        O  0.98422380  0.04449018  0.87212336    -0.57100
O943        O  0.53697937  0.47561490  0.81779868    -0.57100
O944        O  0.54496360  0.47127960  0.86947447    -0.56300
C945        C  0.72534239  0.52092042  0.95878816     0.02600
C946        C  0.72601267  0.51956499  0.93677785     0.02500
C947        C  0.76471796  0.51523179  0.92662352    -0.18000
C948        C  0.80372425  0.51341924  0.93770743     0.02600
C949        C  0.80519169  0.51710677  0.95978525     0.02500
C950        C  0.76513864  0.52012180  0.97013541    -0.18000
H951        H  0.76469456  0.52157327  0.98706523     0.04600
H952        H  0.76448174  0.51322957  0.90967148     0.04600
C953        C  0.80500601  0.27996909  0.27597742     0.02600
C954        C  0.80519696  0.27694904  0.29795504     0.02500
C955        C  0.76468745  0.23476384  0.30807074    -0.18000
C956        C  0.72396114  0.19657949  0.29641149     0.02600
C957        C  0.72384037  0.20141092  0.27449086     0.02500
C958        C  0.76446339  0.24251913  0.26457428    -0.18000
H959        H  0.76437350  0.24562867  0.24767458     0.04600
H960        H  0.76465753  0.23183711  0.32495461     0.04600
C961        C  0.97639355  0.44322496  0.34027378     0.02600
C962        C  0.97607624  0.44453688  0.36237848     0.02500
C963        C  0.51301441  0.48547177  0.37195443    -0.18000
C964        C  0.55360209  0.02515044  0.35872544     0.02600
C965        C  0.55315495  0.02521723  0.33664232     0.02500
C966        C  0.51805574  0.48405501  0.32822561    -0.18000
H967        H  0.51958424  0.48368743  0.31129904     0.04600
H968        H  0.51134068  0.48596232  0.38887693     0.04600
O969        O  0.96874292  0.04927440  0.16570670    -0.57500
C970        C  0.57375817  0.06856065  0.21484714     0.75100
O971        O  0.96869235  0.41138872  0.20325332    -0.58700
C972        C  0.93193776  0.49674606  0.15415758     0.75100
C973        C  0.57420408  0.99978846  0.15290812     0.77500
Cd974      Cd  0.50299660  0.49358780  0.18443485     1.37500
O975        O  0.54409422  0.07959429  0.20489872    -0.57500
O976        O  0.57683510  0.04020369  0.15977454    -0.56300
C977        C  0.94024182  0.42092413  0.21500308     0.77400
O978        O  0.53597950  0.44801357  0.16267118    -0.58700
O979        O  0.57165177  0.02700418  0.21006260    -0.57100
O980        O  0.93245794  0.45594227  0.15784169    -0.57100
O981        O  0.93822228  0.46074876  0.21093204    -0.56300
C982        C  0.72254550  0.01572605  0.09171413     0.02600
C983        C  0.71678181  0.50604815  0.06971144     0.02500
C984        C  0.76007440  0.51030360  0.05914751    -0.18000
C985        C  0.79880901  0.50642940  0.06998423     0.02600
C986        C  0.80485501  0.01840827  0.09168342     0.02500
C987        C  0.76223268  0.01418044  0.10228832    -0.18000
H988        H  0.76004896  0.00992098  0.11916714     0.04600
H989        H  0.76386261  0.51707696  0.04243650     0.04600
C990        C  0.56063134  0.52856337  0.00247072     0.02600
C991        C  0.56031765  0.52707324  0.02456040     0.02500
C992        C  0.52033643  0.52838278  0.03556553    -0.18000
C993        C  0.97488254  0.52020241  0.02691054     0.02600
C994        C  0.97545855  0.52145238  0.00477280     0.02500
C995        C  0.51991247  0.52885518  0.99185633    -0.18000
H996        H  0.51962222  0.52858044  0.97490997     0.04600
H997        H  0.51997237  0.52707442  0.05250125     0.04600
C998        C  0.47893710  0.45081953  0.66977326     0.02600
C999        C  0.48235018  0.45230389  0.69181377     0.02500
C1000       C  0.49344851  0.99993174  0.70276221    -0.18000
C1001       C  0.48986761  0.03826866  0.69180693     0.02600
C1002       C  0.48312014  0.03447440  0.66985705     0.02500
C1003       C  0.48049974  0.99227940  0.65929972    -0.18000
H1004       H  0.47565338  0.98932155  0.64248437     0.04600
H1005       H  0.49789366  0.00262610  0.71959991     0.04600
C1006       C  0.90058260  0.06387385  0.06106140    -0.26000
C1007       C  0.84341050  0.51033642  0.05838703    -0.14100
C1008       C  0.83815675  0.47144551  0.04464312     0.36500
C1009       C  0.88176682  0.47417966  0.03547895    -0.25500
C1010       C  0.93053795  0.51629324  0.03881432    -0.14700
C1011       C  0.94248111  0.06411819  0.05111596     0.37600
N1012       N  0.99312210  0.10591997  0.05421979    -0.89000
H1013       H  0.90719644  0.09493506  0.07140077     0.18700
H1014       H  0.87746131  0.44383462  0.02518690     0.18700
N1015       N  0.78913708  0.42865909  0.03979576    -0.88000
H1016       H  0.00104748  0.10874019  0.07022038     0.36100
H1017       H  0.99345650  0.13914433  0.04957010     0.41200
H1018       H  0.77047666  0.41079721  0.05367189     0.40800
H1019       H  0.76711492  0.44172027  0.03226503     0.35700
C1020       C  0.62609399  0.47200457  0.05810574    -0.26000
C1021       C  0.67709673  0.51168164  0.05790905    -0.14100
C1022       C  0.69399838  0.06765073  0.04588231     0.36500
C1023       C  0.65349677  0.06905133  0.03561175    -0.25500
C1024       C  0.59978124  0.52103569  0.03634052    -0.14700
C1025       C  0.58749759  0.47559836  0.04723104     0.37600
N1026       N  0.53687322  0.43186856  0.04722509    -0.89000
H1027       H  0.61630550  0.43720440  0.06639385     0.18700
H1028       H  0.66135275  0.10188423  0.02622937     0.18700
N1029       N  0.74492015  0.10995581  0.04422017    -0.88000
H1030       H  0.53958253  0.40186523  0.04038420     0.36100
H1031       H  0.51157822  0.43717979  0.03788511     0.41200
H1032       H  0.74216518  0.62954919  0.05152260     0.40800
H1033       H  0.75302093  0.60354722  0.03001057     0.35700
C1034       C  0.87085862  0.45619915  0.12469862    -0.26000
C1035       C  0.89884553  0.49908011  0.13747908    -0.14100
C1036       C  0.90567193  0.06093544  0.13342100     0.43700
C1037       C  0.87472626  0.06190632  0.11725751    -0.25500
C1038       C  0.83532320  0.50013478  0.10513768    -0.14700
C1039       C  0.83910058  0.45619711  0.10877739     0.37600
N1040       N  0.81020196  0.41061431  0.09694602    -0.89000
H1041       H  0.87310142  0.42197947  0.12719512     0.18700
H1042       H  0.87147964  0.09568854  0.11505738     0.18700
N1043       N  0.93305810  0.10486130  0.14637649    -0.88000
H1044       H  0.82228443  0.41838006  0.08139368     0.36100
H1045       H  0.77143934  0.39993272  0.09781895     0.41200
H1046       H  0.90645766  0.11330024  0.15325951     0.40800
H1047       H  0.95726219  0.13538046  0.13679346     0.35700
C1048       C  0.64242461  0.04930044  0.12684613    -0.26000
C1049       C  0.60886915  0.00182214  0.13588732    -0.14100
C1050       C  0.59821569  0.44345890  0.12773916     0.36500
C1051       C  0.63231113  0.44670037  0.11192280    -0.25500
C1052       C  0.67953021  0.01097919  0.10461505    -0.14700
C1053       C  0.67768607  0.05428358  0.11144426     0.37600
N1054       N  0.71256578  0.10401426  0.10365804    -0.89000
H1055       H  0.64220191  0.08325866  0.13207261     0.18700
H1056       H  0.63035212  0.41220812  0.10599839     0.18700
N1057       N  0.56028601  0.39458453  0.13526511    -0.88000
H1058       H  0.70723418  0.10432196  0.08756505     0.36100
H1059       H  0.75003473  0.11164089  0.10634938     0.41200
H1060       H  0.57912403  0.37577481  0.14084337     0.40800
H1061       H  0.53753688  0.37381682  0.12262464     0.35700
C1062       C  0.88653248  0.31677748  0.25621688    -0.26000
C1063       C  0.84564397  0.32203970  0.26392878    -0.14100
C1064       C  0.83870240  0.36212960  0.25681671     0.36500
C1065       C  0.87088186  0.39449899  0.24130164    -0.25500
C1066       C  0.91020476  0.38777315  0.23258303    -0.14700
C1067       C  0.91975898  0.35002455  0.24087827     0.37600
N1068       N  0.96260631  0.34525165  0.23365863    -0.89000
H1069       H  0.89139543  0.28558755  0.26167230     0.18700
H1070       H  0.86381948  0.42409716  0.23555712     0.18700
N1071       N  0.79815405  0.36969803  0.26459939    -0.88000
H1072       H  0.96360768  0.31522420  0.24124682     0.36100
H1073       H  0.99597233  0.37833938  0.23804556     0.41200
H1074       H  0.80275090  0.37523840  0.28072915     0.40800
H1075       H  0.76313128  0.33693017  0.26177934     0.35700
C1076       C  0.64145557  0.08667250  0.24111774    -0.26000
C1077       C  0.60956997  0.10195447  0.23114804    -0.14100
C1078       C  0.61360062  0.14898753  0.23667158     0.36500
C1079       C  0.64963665  0.17983571  0.25162705    -0.25500
C1080       C  0.68185022  0.16471856  0.26115065    -0.14700
C1081       C  0.67776585  0.11787666  0.25588472     0.37600
N1082       N  0.71174715  0.10281370  0.26490985    -0.89000
H1083       H  0.63920284  0.05083339  0.23711405     0.18700
H1084       H  0.65343497  0.21643624  0.25546646     0.18700
N1085       N  0.58208684  0.16618700  0.22692215    -0.88000
H1086       H  0.73217276  0.09756396  0.25278640     0.36100
H1087       H  0.68946617  0.06778751  0.27227648     0.41200
H1088       H  0.60610546  0.20095654  0.21964662     0.40800
H1089       H  0.56141459  0.17247683  0.23862418     0.35700
C1090       C  0.63235784  0.14826528  0.30680454    -0.26000
C1091       C  0.68111210  0.15246769  0.30707596    -0.14100
C1092       C  0.68700272  0.11305382  0.31619341     0.36500
C1093       C  0.64423336  0.07131054  0.32515509    -0.25500
C1094       C  0.59563900  0.06730325  0.32490553    -0.14700
C1095       C  0.58967347  0.10606477  0.31543936     0.37600
N1096       N  0.54089913  0.10379957  0.31462068    -0.89000
H1097       H  0.62743825  0.17798488  0.29966628     0.18700
H1098       H  0.64899254  0.04173946  0.33253048     0.18700
N1099       N  0.73525263  0.11369163  0.31657133    -0.88000
H1100       H  0.52686820  0.10069041  0.32983911     0.36100
H1101       H  0.51555730  0.07115232  0.30637241     0.41200
H1102       H  0.76411757  0.14533623  0.30890092     0.40800
H1103       H  0.73071948  0.08195562  0.30826252     0.35700
C1104       C  0.89614344  0.32196276  0.30897410    -0.26000
C1105       C  0.84751432  0.31782941  0.31013248    -0.14100
C1106       C  0.84159107  0.35513720  0.32124650     0.36500
C1107       C  0.88476144  0.39626983  0.33015550    -0.25500
C1108       C  0.93355947  0.40081925  0.32878054    -0.14700
C1109       C  0.93915785  0.36259845  0.31826553     0.37600
N1110       N  0.98729827  0.36318766  0.31687450    -0.89000
H1111       H  0.90074280  0.29319321  0.30069021     0.18700
H1112       H  0.88004957  0.42488736  0.33849381     0.18700
N1113       N  0.79279091  0.35266588  0.32398189    -0.88000
H1114       H  0.98297076  0.33094435  0.32462976     0.36100
H1115       H  0.01653021  0.39437970  0.32458243     0.41200
H1116       H  0.76342718  0.32155887  0.31629106     0.40800
H1117       H  0.79516360  0.38514903  0.31722380     0.35700
C1118       C  0.85997639  0.47875745  0.96898485    -0.26000
C1119       C  0.84770400  0.51752214  0.97202379    -0.14100
C1120       C  0.87780333  0.55759946  0.98586748     0.36500
C1121       C  0.91988612  0.55887014  0.99594718    -0.25500
C1122       C  0.93241991  0.52039156  0.99274996    -0.14700
C1123       C  0.90205303  0.47984862  0.97912127     0.37600
N1124       N  0.91372516  0.43968375  0.97581197    -0.89000
H1125       H  0.83651321  0.44741061  0.95865668     0.18700
H1126       H  0.94291516  0.59011325  0.00639752     0.18700
N1127       N  0.86652008  0.59777796  0.98937093    -0.88000
H1128       H  0.88804159  0.41301992  0.96519894     0.36100
H1129       H  0.90828080  0.42068436  0.99002177     0.41200
H1130       H  0.87943671  0.12101714  0.97072950     0.40800
H1131       H  0.90213244  0.13239469  0.99521258     0.35700
C1132       C  0.67715749  0.06669623  0.96738927    -0.26000
C1133       C  0.68327864  0.52288633  0.97003052    -0.14100
C1134       C  0.64629667  0.48035644  0.98109271     0.36500
C1135       C  0.60565154  0.48240097  0.99101944    -0.25500
C1136       C  0.60177265  0.52667584  0.99029494    -0.14700
C1137       C  0.63653654  0.06836431  0.97775176     0.37600
N1138       N  0.62935540  0.11136332  0.97509890    -0.89000
H1139       H  0.70240847  0.09796104  0.95734214     0.18700
H1140       H  0.57732629  0.44953058  0.99957405     0.18700
N1141       N  0.64970563  0.43488578  0.98204139    -0.88000
H1142       H  0.62391441  0.11475964  0.95917548     0.36100
H1143       H  0.66301281  0.14383325  0.97969635     0.41200
H1144       H  0.65147319  0.42665601  0.99777817     0.40800
H1145       H  0.61606853  0.40522690  0.97575014     0.35700
C1146       C  0.82486484  0.46534754  0.91218894    -0.26000
C1147       C  0.84199383  0.50831704  0.92500047    -0.14100
C1148       C  0.89178198  0.05394636  0.91963737     0.36500
C1149       C  0.92363565  0.05065571  0.90437980    -0.25500
C1150       C  0.90572138  0.50514321  0.89330708    -0.14700
C1151       C  0.85605700  0.46346731  0.89631099     0.37600
N1152       N  0.83627047  0.41998125  0.88286545    -0.89000
H1153       H  0.78598093  0.43410606  0.91386612     0.18700
H1154       H  0.95897534  0.08479655  0.90037030     0.18700
N1155       N  0.90588823  0.10165210  0.92943057    -0.88000
H1156       H  0.80313625  0.41582854  0.87573425     0.36100
H1157       H  0.82586814  0.38790892  0.89212195     0.41200
H1158       H  0.94104273  0.11423322  0.93689964     0.40800
H1159       H  0.91100133  0.12784459  0.91775335     0.35700
C1160       C  0.66539814  0.55873639  0.89437297    -0.26000
C1161       C  0.61716566  0.51491621  0.89235030    -0.14100
C1162       C  0.60298262  0.47460508  0.90688768     0.36500
C1163       C  0.63776920  0.47818194  0.92220223    -0.25500
C1164       C  0.68655730  0.52102474  0.92347054    -0.14700
C1165       C  0.70007189  0.56191462  0.90972360     0.37600
N1166       N  0.74950741  0.60647496  0.91119126    -0.89000
H1167       H  0.67679288  0.59033465  0.88372978     0.18700
H1168       H  0.63713857  0.94190377  0.92869856     0.18700
N1169       N  0.56539278  0.92149234  0.90134069    -0.88000
H1170       H  0.76823728  0.61167081  0.89683537     0.36100
H1171       H  0.74412036  0.63763473  0.91376607     0.41200
H1172       H  0.54925001  0.41016067  0.89270360     0.40800
H1173       H  0.52538750  0.44028991  0.90791084     0.35700
C1174       C  0.54126043  0.17530386  0.77378374    -0.26000
C1175       C  0.49233712  0.16790234  0.76937244    -0.14100
C1176       C  0.95821251  0.12630621  0.77500323     0.36500
C1177       C  0.96367023  0.09519578  0.78959196    -0.25500
C1178       C  0.50450576  0.10572489  0.79873197    -0.14700
C1179       C  0.54782959  0.14398960  0.78815545     0.37600
N1180       N  0.59806831  0.15102378  0.79202141    -0.89000
H1181       H  0.57445574  0.20644219  0.76641473     0.18700
H1182       H  0.92926625  0.06246510  0.79542724     0.18700
N1183       N  0.90755092  0.11398790  0.76883648    -0.88000
H1184       H  0.62559549  0.18112059  0.78309044     0.36100
H1185       H  0.59821061  0.11831267  0.78681910     0.41200
H1186       H  0.90453070  0.10870113  0.75268061     0.40800
H1187       H  0.90200601  0.14455685  0.77254675     0.35700
C1188       C  0.52329632  0.37181754  0.76924811    -0.26000
C1189       C  0.48016392  0.32324225  0.76960707    -0.14100
C1190       C  0.95180790  0.31364162  0.78444064     0.36500
C1191       C  0.95551275  0.35007312  0.79898393    -0.25500
C1192       C  0.49027231  0.39701635  0.79907568    -0.14700
C1193       C  0.52856840  0.40890930  0.78368838     0.37600
N1194       N  0.57328269  0.45822536  0.78277366    -0.89000
H1195       H  0.55410765  0.38041074  0.75825772     0.18700
H1196       H  0.92582682  0.33905880  0.81076552     0.18700
N1197       N  0.90864385  0.26328327  0.78509707    -0.88000
H1198       H  0.57484417  0.47350897  0.76797367     0.36100
H1199       H  0.60553572  0.45386577  0.78440966     0.41200
H1200       H  0.87544284  0.26590656  0.78322584     0.40800
H1201       H  0.90726363  0.24811968  0.79990019     0.35700
C1202       C  0.53652541  0.12367227  0.70907550    -0.26000
C1203       C  0.48995351  0.08073073  0.70356934    -0.14100
C1204       C  0.94536174  0.08294977  0.70436252     0.36500
C1205       C  0.94803695  0.12610830  0.71384641    -0.25500
C1206       C  0.49054645  0.16468211  0.72317551    -0.14700
C1207       C  0.53725784  0.16601762  0.71868495     0.37600
N1208       N  0.58501157  0.21019966  0.72398870    -0.89000
H1209       H  0.57222607  0.12450015  0.70544520     0.18700
H1210       H  0.91320139  0.12801278  0.71602001     0.18700
N1211       N  0.89679699  0.04176434  0.69803086    -0.88000
H1212       H  0.61582938  0.20505550  0.71976861     0.36100
H1213       H  0.58822076  0.24049718  0.71504905     0.41200
H1214       H  0.87325304  0.02843309  0.71127051     0.40800
H1215       H  0.88025064  0.05613554  0.68770534     0.35700
C1216       C  0.94517074  0.37397082  0.71147518    -0.26000
C1217       C  0.48404947  0.41069368  0.70350352    -0.14100
C1218       C  0.52898493  0.40650859  0.70469455     0.36500
C1219       C  0.52666360  0.36388073  0.71437178    -0.25500
C1220       C  0.48093168  0.32547674  0.72311891    -0.14700
C1221       C  0.94375360  0.33225349  0.72160389     0.37600
N1222       N  0.89558928  0.29396584  0.73010536    -0.89000
H1223       H  0.91013415  0.37580894  0.71015570     0.18700
H1224       H  0.56132377  0.36129978  0.71554413     0.18700
N1225       N  0.57778528  0.44514312  0.69684744    -0.88000
H1226       H  0.88575270  0.31062510  0.74230542     0.36100
H1227       H  0.89820041  0.26370702  0.73652124     0.41200
H1228       H  0.57555483  0.47555406  0.69037321     0.40800
H1229       H  0.58897318  0.42902454  0.68488953     0.35700
C1230       C  0.53657299  0.35623152  0.58084020    -0.26000
C1231       C  0.49076637  0.32758332  0.59199315    -0.14100
C1232       C  0.94612498  0.33228021  0.58763803     0.36500
C1233       C  0.95073062  0.36817062  0.57279250    -0.25500
C1234       C  0.99638221  0.39638759  0.56128571    -0.14700
C1235       C  0.54100005  0.39159909  0.56565533     0.37600
N1236       N  0.58822216  0.41996150  0.55426035    -0.89000
H1237       H  0.56855749  0.34991625  0.58367730     0.18700
H1238       H  0.91770272  0.37270559  0.56984306     0.18700
N1239       N  0.89823484  0.30170909  0.59811890    -0.88000
H1240       H  0.61461563  0.40859018  0.55852984     0.36100
H1241       H  0.60426806  0.45796931  0.55882439     0.41200
H1242       H  0.88844472  0.32602552  0.60600621     0.40800
H1243       H  0.87025971  0.28204596  0.58679786     0.35700
C1244       C  0.52447224  0.15986517  0.59071636    -0.26000
C1245       C  0.47866541  0.16116157  0.59225455    -0.14100
C1246       C  0.93401393  0.12812022  0.57589383     0.36500
C1247       C  0.94013816  0.09753625  0.56099014    -0.25500
C1248       C  0.48994378  0.09999751  0.56177367    -0.14700
C1249       C  0.53054118  0.12916541  0.57581518     0.37600
N1250       N  0.57806932  0.12850191  0.57474629    -0.89000
H1251       H  0.55623754  0.18426469  0.60076949     0.18700
H1252       H  0.90878396  0.07521267  0.55041778     0.18700
N1253       N  0.88620503  0.12839788  0.57640537    -0.88000
H1254       H  0.57052519  0.09247044  0.57954258     0.36100
H1255       H  0.60453888  0.15424667  0.58541320     0.41200
H1256       H  0.88510777  0.15086644  0.58857255     0.40800
H1257       H  0.85720881  0.09137419  0.57968997     0.35700
C1258       C  0.52425045  0.12388303  0.65732657    -0.26000
C1259       C  0.48033421  0.07547643  0.65795042    -0.14100
C1260       C  0.93598983  0.06537722  0.64556600     0.36500
C1261       C  0.93624258  0.10698045  0.63574958    -0.25500
C1262       C  0.47824121  0.15856539  0.63854987    -0.14700
C1263       C  0.52341266  0.16527123  0.64790690     0.37600
N1264       N  0.56893746  0.21399027  0.64743309    -0.89000
H1265       H  0.55950190  0.12967475  0.66436667     0.18700
H1266       H  0.90181110  0.10149436  0.62802106     0.18700
N1267       N  0.88939948  0.01712360  0.64496653    -0.88000
H1268       H  0.59763847  0.20997429  0.63981451     0.36100
H1269       H  0.58057462  0.22508945  0.66284863     0.41200
H1270       H  0.89244665  0.98936495  0.65341855     0.40800
H1271       H  0.86065521  0.02154336  0.65229101     0.35700
C1272       C  0.52454134  0.41561738  0.64935916    -0.26000
C1273       C  0.47828281  0.40852578  0.65779517    -0.14100
C1274       C  0.93767293  0.36070423  0.65456059     0.36500
C1275       C  0.93946892  0.31967278  0.64523296    -0.25500
C1276       C  0.48324127  0.32714337  0.63841978    -0.14700
C1277       C  0.52777424  0.37560027  0.63979190     0.37600
N1278       N  0.57702349  0.38535780  0.63223717    -0.89000
H1279       H  0.55885676  0.45242300  0.65067929     0.18700
H1280       H  0.90408919  0.28408483  0.64315853     0.18700
N1281       N  0.88848438  0.35371203  0.66078304    -0.88000
H1282       H  0.58765319  0.41136513  0.61994837     0.36100
H1283       H  0.57578701  0.35266408  0.62627657     0.41200
H1284       H  0.89109408  0.38696151  0.66681316     0.40800
H1285       H  0.87443291  0.32678586  0.67277954     0.35700
C1286       C  0.62989406  0.15326014  0.43885982    -0.26000
C1287       C  0.67706090  0.15502800  0.43654485    -0.14100
C1288       C  0.68912556  0.12470048  0.44955371     0.36500
C1289       C  0.65452713  0.09521926  0.46525022    -0.25500
C1290       C  0.60825131  0.09537548  0.46836936    -0.14700
C1291       C  0.59551659  0.12400860  0.45464644     0.37600
N1292       N  0.54843754  0.12482482  0.45695721    -0.89000
H1293       H  0.62093278  0.17701856  0.42910223     0.18700
H1294       H  0.66459944  0.07288703  0.47536118     0.18700
N1295       N  0.73674100  0.12429413  0.44778473    -0.88000
H1296       H  0.52821867  0.11243689  0.44292786     0.36100
H1297       H  0.55728617  0.16244653  0.45945648     0.41200
H1298       H  0.75895083  0.14659986  0.43531538     0.40800
H1299       H  0.72787356  0.08710975  0.44424247     0.35700
C1300       C  0.87822268  0.32972626  0.44068194    -0.26000
C1301       C  0.82914082  0.32274302  0.43766053    -0.14100
C1302       C  0.81278890  0.35203407  0.44912889     0.36500
C1303       C  0.84601025  0.38751736  0.46379103    -0.25500
C1304       C  0.89472557  0.39334137  0.46744130    -0.14700
C1305       C  0.91106192  0.36447858  0.45548729     0.37600
N1306       N  0.96071634  0.36968705  0.45844271    -0.89000
H1307       H  0.89041855  0.30666898  0.43204514     0.18700
H1308       H  0.83322461  0.40956583  0.47279472     0.18700
N1309       N  0.76195569  0.34436222  0.44624353    -0.88000
H1310       H  0.98028148  0.38009525  0.44415629     0.36100
H1311       H  0.95579068  0.33420080  0.46267029     0.41200
H1312       H  0.75948299  0.35470594  0.43090187     0.40800
H1313       H  0.75563803  0.36844199  0.45603909     0.35700
C1314       C  0.67451272  0.10551575  0.39033032    -0.26000
C1315       C  0.67740768  0.15325292  0.39004518    -0.14100
C1316       C  0.63833279  0.15839893  0.37989170     0.36500
C1317       C  0.59788088  0.11585776  0.37025432    -0.25500
C1318       C  0.59516782  0.06826587  0.37047581    -0.14700
C1319       C  0.63388410  0.06317875  0.38057635     0.37600
N1320       N  0.63245840  0.01522630  0.38060837    -0.89000
H1321       H  0.70390861  0.10109788  0.39824662     0.18700
H1322       H  0.56815929  0.12001767  0.36254985     0.18700
N1323       N  0.63791283  0.20568181  0.37918869    -0.88000
H1324       H  0.63223812  0.00457602  0.39615236     0.36100
H1325       H  0.66614786  0.02022214  0.37355663     0.41200
H1326       H  0.66924496  0.23481602  0.38689402     0.40800
H1327       H  0.60526776  0.20047065  0.38724259     0.35700
C1328       C  0.92513130  0.35346321  0.37328468    -0.26000
C1329       C  0.93283370  0.40312929  0.37436684    -0.14100
C1330       C  0.89547659  0.41123646  0.38446242     0.36500
C1331       C  0.85131269  0.36995123  0.39284052    -0.25500
C1332       C  0.84339841  0.32022810  0.39165995    -0.14700
C1333       C  0.88110102  0.31218387  0.38179538     0.37600
N1334       N  0.87629177  0.26276416  0.38060991    -0.89000
H1335       H  0.95324069  0.34665954  0.36541934     0.18700
H1336       H  0.82299197  0.37678206  0.40048050     0.18700
N1337       N  0.90079435  0.46081781  0.38598094    -0.88000
H1338       H  0.84365064  0.23900308  0.37194091     0.36100
H1339       H  0.87171673  0.24821109  0.39575040     0.41200
H1340       H  0.90490672  0.47573563  0.37093416     0.40800
H1341       H  0.93399022  0.48415967  0.39443009     0.35700
C1342       C  0.79709314  0.77986275  0.40292455     0.02600
C1343       C  0.79598215  0.78180065  0.42499723     0.02500
C1344       C  0.75847266  0.74044231  0.43610047    -0.18000
C1345       C  0.72033344  0.69819453  0.42582142     0.02600
C1346       C  0.71901483  0.69662516  0.40386111     0.02500
C1347       C  0.75791057  0.73730800  0.39249017    -0.18000
H1348       H  0.75717217  0.73617558  0.37555720     0.04600
H1349       H  0.75820735  0.74164294  0.45306059     0.04600
C1350       C  0.47640421  0.78001136  0.62853092     0.02600
C1351       C  0.47301260  0.77943843  0.60652034     0.02500
C1352       C  0.46696649  0.73717515  0.59528807    -0.18000
C1353       C  0.46681903  0.69616091  0.60522049     0.02600
C1354       C  0.47201604  0.69684579  0.62719714     0.02500
C1355       C  0.47562641  0.73840048  0.63872527    -0.18000
H1356       H  0.47871700  0.73873454  0.65560574     0.04600
H1357       H  0.98447628  0.74242973  0.57785051     0.04600
O1358       O  0.95194384  0.53633840  0.53223468    -0.57500
C1359       C  0.93300440  0.92954797  0.48384659     0.75100
O1360       O  0.57895859  0.53450676  0.49653467    -0.58700
C1361       C  0.48349280  0.56206903  0.54505798     0.75100
C1362       C  0.00109972  0.93030430  0.54676281     0.77500
Cd1363     Cd  0.50059708  0.00026403  0.51595334     1.37500
O1364       O  0.92278270  0.96014946  0.49353095    -0.57500
O1365       O  0.96103654  0.93071381  0.54102850    -0.56300
C1366       C  0.57239466  0.56651985  0.48620151     0.77400
O1367       O  0.53786391  0.95983819  0.53717773    -0.58700
O1368       O  0.97271464  0.92843499  0.48954492    -0.57100
O1369       O  0.52486738  0.56115643  0.54256663    -0.57100
O1370       O  0.53245457  0.56897004  0.49038464    -0.56300
C1371       C  0.48890324  0.78657616  0.75615253     0.02600
C1372       C  0.48683866  0.78629141  0.73409993     0.02500
C1373       C  0.48627366  0.74551892  0.72302747    -0.18000
C1374       C  0.48844695  0.70592071  0.73378243     0.02600
C1375       C  0.49171786  0.70786017  0.75578728     0.02500
C1376       C  0.49175649  0.74777435  0.76660509    -0.18000
H1377       H  0.49435424  0.74878896  0.78353814     0.04600
H1378       H  0.48430942  0.74469198  0.70610862     0.04600
O1379       O  0.96966578  0.92519449  0.82649487    -0.57500
C1380       C  0.93944521  0.50643438  0.87611404     0.75100
O1381       O  0.58722042  0.55260886  0.86673634    -0.58700
C1382       C  0.50407322  0.93573658  0.81591591     0.75100
C1383       C  0.01437183  0.57954425  0.81504713     0.77500
Cd1384     Cd  0.51111639  0.00815167  0.84612300     1.37500
O1385       O  0.93175901  0.96547722  0.86560277    -0.57500
O1386       O  0.97295772  0.54203409  0.82140047    -0.56300
C1387       C  0.58372595  0.01194137  0.87563176     0.77400
O1388       O  0.54694101  0.58738186  0.82670074    -0.58700
O1389       O  0.98094885  0.54671001  0.87207195    -0.57100
O1390       O  0.54477761  0.97774434  0.81848137    -0.57100
O1391       O  0.54143021  0.97226404  0.87218104    -0.56300
C1392       C  0.72822949  0.02385074  0.95863459     0.02600
C1393       C  0.72880070  0.02205215  0.93659211     0.02500
C1394       C  0.76721435  0.01737308  0.92622700    -0.18000
C1395       C  0.80610660  0.01529121  0.93718235     0.02600
C1396       C  0.80762542  0.01902029  0.95920414     0.02500
C1397       C  0.76820398  0.02282010  0.96976800    -0.18000
H1398       H  0.76853217  0.02479235  0.98669315     0.04600
H1399       H  0.76668125  0.01506101  0.90928181     0.04600
C1400       C  0.80221474  0.77897577  0.27349146     0.02600
C1401       C  0.80406195  0.77806020  0.29548804     0.02500
C1402       C  0.76525865  0.73616960  0.30647008    -0.18000
C1403       C  0.72445378  0.69558601  0.29571611     0.02600
C1404       C  0.72262397  0.69826088  0.27368712     0.02500
C1405       C  0.76173030  0.73925897  0.26293402    -0.18000
H1406       H  0.76015048  0.74073485  0.24601593     0.04600
H1407       H  0.76651901  0.73542531  0.32339000     0.04600
C1408       C  0.97103384  0.94623348  0.33883895     0.02600
C1409       C  0.96870385  0.94702340  0.36091072     0.02500
C1410       C  0.51392204  0.98431067  0.36962216    -0.18000
C1411       C  0.55451277  0.52540193  0.36140928     0.02600
C1412       C  0.55707299  0.52507532  0.33933884     0.02500
C1413       C  0.51327324  0.98434516  0.32584616    -0.18000
H1414       H  0.51330327  0.98422162  0.30890274     0.04600
H1415       H  0.51416645  0.98433876  0.38656588     0.04600
O1416       O  0.96184170  0.53500646  0.16511865    -0.57500
C1417       C  0.57449216  0.56391223  0.21383307     0.75100
O1418       O  0.96873941  0.91926194  0.20225037    -0.58700
C1419       C  0.93948696  0.01219754  0.15407775     0.75100
C1420       C  0.56885813  0.48819674  0.15341957     0.77500
Cd1421     Cd  0.50565579  0.00124802  0.18381083     1.37500
O1422       O  0.54518228  0.57487849  0.20352384    -0.57500
O1423       O  0.57192906  0.52939717  0.15951551    -0.56300
C1424       C  0.93869954  0.92692311  0.21380082     0.77400
O1425       O  0.54053389  0.95864879  0.16125611    -0.58700
O1426       O  0.57180998  0.52182509  0.20957882    -0.57100
O1427       O  0.93873703  0.97067892  0.15743667    -0.57100
O1428       O  0.93761327  0.96760827  0.21061487    -0.56300
C1429       C  0.71213300  0.49631692  0.09145412     0.02600
C1430       C  0.72561324  0.02287006  0.06983468     0.02500
C1431       C  0.76832520  0.02655876  0.05901743    -0.18000
C1432       C  0.80756582  0.02325359  0.06967964     0.02600
C1433       C  0.79445660  0.49895620  0.09184374     0.02500
C1434       C  0.75081469  0.49303191  0.10213246    -0.18000
H1435       H  0.74765100  0.48739412  0.11894331     0.04600
H1436       H  0.77078390  0.03155538  0.04220233     0.04600
C1437       C  0.56201797  0.02993306  0.00319978     0.02600
C1438       C  0.56152755  0.02948642  0.02531266     0.02500
C1439       C  0.52089486  0.02973870  0.03623227    -0.18000
C1440       C  0.97739665  0.02433201  0.02596849     0.02600
C1441       C  0.97698744  0.02244554  0.00383882     0.02500
C1442       C  0.52125435  0.02990333  0.99252909    -0.18000
H1443       H  0.52114911  0.02959598  0.97558112     0.04600
H1444       H  0.52083556  0.02934947  0.05317813     0.04600
C1445       C  0.48351995  0.95361210  0.67032322     0.02600
C1446       C  0.49043336  0.95770134  0.69223418     0.02500
C1447       C  0.48277273  0.49291058  0.70274633    -0.18000
C1448       C  0.47962182  0.53179603  0.69201311     0.02600
C1449       C  0.47617403  0.53012919  0.66993581     0.02500
C1450       C  0.47634448  0.48984330  0.65904477    -0.18000
H1451       H  0.47419991  0.48874722  0.64212472     0.04600
H1452       H  0.48537340  0.49415898  0.71965147     0.04600
C1453       C  0.89220445  0.55226908  0.06191353    -0.26000
C1454       C  0.85043232  0.02411051  0.05773411    -0.14100
C1455       C  0.84226460  0.98399263  0.04405605     0.36500
C1456       C  0.88423554  0.98365786  0.03467375    -0.25500
C1457       C  0.93436006  0.02370220  0.03781023    -0.14700
C1458       C  0.93586260  0.55598241  0.05201197     0.37600
N1459       N  0.98535973  0.60010004  0.05501676    -0.89000
H1460       H  0.89604910  0.58232339  0.07227333     0.18700
H1461       H  0.87762420  0.95225612  0.02454449     0.18700
N1462       N  0.79200775  0.94245492  0.03982257    -0.88000
H1463       H  0.98263684  0.62575963  0.06516027     0.36100
H1464       H  0.99756401  0.61852542  0.04058390     0.41200
H1465       H  0.77387483  0.92588790  0.05392882     0.40800
H1466       H  0.77072626  0.95644172  0.03230154     0.35700
C1467       C  0.63373199  0.98431417  0.05958527    -0.26000
C1468       C  0.68409850  0.02505746  0.05811832    -0.14100
C1469       C  0.68964267  0.55602109  0.04641861     0.36500
C1470       C  0.65100327  0.56053111  0.03593537    -0.25500
C1471       C  0.60315040  0.02841852  0.03728347    -0.14700
C1472       C  0.59328555  0.98581855  0.04939449     0.37600
N1473       N  0.54236936  0.94345051  0.05090680    -0.89000
H1474       H  0.62578519  0.95092833  0.06856757     0.18700
H1475       H  0.66107150  0.59508325  0.02739035     0.18700
N1476       N  0.74148092  0.59695201  0.04568075    -0.88000
H1477       H  0.53205380  0.93762971  0.06670981     0.36100
H1478       H  0.54295990  0.91124626  0.04533243     0.41200
H1479       H  0.74441501  0.14229829  0.04961312     0.40800
H1480       H  0.75509845  0.11538036  0.02837851     0.35700
C1481       C  0.88013081  0.97388002  0.12409048    -0.26000
C1482       C  0.90815009  0.01625794  0.13710219    -0.14100
C1483       C  0.89531334  0.54316364  0.13369998     0.43700
C1484       C  0.86392358  0.54332792  0.11754754    -0.25500
C1485       C  0.84569460  0.01898787  0.10474571    -0.14700
C1486       C  0.84879111  0.97462300  0.10820399     0.37600
N1487       N  0.81919104  0.92912728  0.09640268    -0.89000
H1488       H  0.88165207  0.93924627  0.12648585     0.18700
H1489       H  0.86012192  0.57676353  0.11523794     0.18700
N1490       N  0.92216345  0.58736740  0.14655533    -0.88000
H1491       H  0.83121953  0.93648633  0.08087189     0.36100
H1492       H  0.78053978  0.91905757  0.09731483     0.41200
H1493       H  0.89518263  0.59527499  0.15342772     0.40800
H1494       H  0.94594801  0.61793328  0.13691068     0.35700
C1495       C  0.63977819  0.53562320  0.12819995    -0.26000
C1496       C  0.60236096  0.48841835  0.13626157    -0.14100
C1497       C  0.60962504  0.95822201  0.12849476     0.36500
C1498       C  0.64514536  0.96328647  0.11303508    -0.25500
C1499       C  0.67032477  0.49400417  0.10441538    -0.14700
C1500       C  0.67401028  0.53881177  0.11268199     0.37600
N1501       N  0.71380407  0.58807530  0.10633965    -0.89000
H1502       H  0.64375343  0.57069083  0.13444253     0.18700
H1503       H  0.64704186  0.93002133  0.10802367     0.18700
N1504       N  0.57540089  0.90898053  0.13687571    -0.88000
H1505       H  0.71076156  0.59168632  0.09025794     0.36100
H1506       H  0.74926171  0.59076431  0.10936119     0.41200
H1507       H  0.59737862  0.89412453  0.14309687     0.40800
H1508       H  0.55381501  0.88548378  0.12454943     0.35700
C1509       C  0.88464550  0.82070448  0.25425348    -0.26000
C1510       C  0.84042819  0.82165252  0.26071200    -0.14100
C1511       C  0.82942291  0.85819437  0.25216210     0.36500
C1512       C  0.86278519  0.89258597  0.23729802    -0.25500
C1513       C  0.90622685  0.89073202  0.23024155    -0.14700
C1514       C  0.91787764  0.85499927  0.23915238     0.37600
N1515       N  0.96307037  0.85339175  0.23281514    -0.89000
H1516       H  0.89235442  0.79200615  0.26057273     0.18700
H1517       H  0.85363823  0.92009430  0.23074420     0.18700
N1518       N  0.78442462  0.86098306  0.25781991    -0.88000
H1519       H  0.96536080  0.82427232  0.24059895     0.36100
H1520       H  0.99482763  0.88744274  0.23757762     0.41200
H1521       H  0.76267197  0.83445770  0.26926186     0.40800
H1522       H  0.76134545  0.85189841  0.24454072     0.35700
C1523       C  0.64077766  0.58211219  0.24095634    -0.26000
C1524       C  0.60987318  0.59757219  0.23023300    -0.14100
C1525       C  0.61314323  0.64432635  0.23563036     0.36500
C1526       C  0.64824155  0.67524969  0.25083182    -0.25500
C1527       C  0.67996544  0.66032488  0.26093815    -0.14700
C1528       C  0.67575254  0.61316896  0.25620643     0.37600
N1529       N  0.70817951  0.59760703  0.26632908    -0.89000
H1530       H  0.63857666  0.54614134  0.23727331     0.18700
H1531       H  0.65186940  0.71192689  0.25436355     0.18700
N1532       N  0.58155907  0.66105520  0.22560099    -0.88000
H1533       H  0.72934339  0.59138237  0.25483177     0.36100
H1534       H  0.68475131  0.56305320  0.27386001     0.41200
H1535       H  0.60549518  0.69606144  0.21849546     0.40800
H1536       H  0.56005168  0.66670392  0.23713325     0.35700
C1537       C  0.63297739  0.64521524  0.30662874    -0.26000
C1538       C  0.68279651  0.65216346  0.30752088    -0.14100
C1539       C  0.69105342  0.61680516  0.31898474     0.36500
C1540       C  0.64925759  0.57551461  0.32882749    -0.25500
C1541       C  0.59939355  0.56846706  0.32777804    -0.14700
C1542       C  0.59142367  0.60441342  0.31671740     0.37600
N1543       N  0.54214806  0.60143629  0.31558162    -0.89000
H1544       H  0.62632016  0.67226260  0.29809336     0.18700
H1545       H  0.65577766  0.54839452  0.33734281     0.18700
N1546       N  0.74071746  0.62087519  0.32082049    -0.88000
H1547       H  0.54547561  0.63395844  0.32279456     0.36100
H1548       H  0.51411176  0.57064183  0.32395010     0.41200
H1549       H  0.76871182  0.65158037  0.31240201     0.40800
H1550       H  0.73848833  0.58838321  0.31405720     0.35700
C1551       C  0.89368637  0.82357622  0.30809692    -0.26000
C1552       C  0.84585252  0.82106560  0.30698721    -0.14100
C1553       C  0.83991260  0.86094131  0.31565870     0.36500
C1554       C  0.88183209  0.90176684  0.32543158    -0.25500
C1555       C  0.92963348  0.90412049  0.32668989    -0.14700
C1556       C  0.93563335  0.86439680  0.31785257     0.37600
N1557       N  0.98314770  0.86365561  0.31867922    -0.89000
H1558       H  0.89845641  0.79332471  0.30131050     0.18700
H1559       H  0.87693533  0.93185355  0.33230384     0.18700
N1560       N  0.79226624  0.86141315  0.31493675    -0.88000
H1561       H  0.97666548  0.83184336  0.32738464     0.36100
H1562       H  0.01164219  0.89522019  0.32648785     0.41200
H1563       H  0.76333153  0.82891860  0.30778965     0.40800
H1564       H  0.79813065  0.89231517  0.30572506     0.35700
C1565       C  0.85976138  0.97880956  0.96934094    -0.26000
C1566       C  0.85042132  0.01978466  0.97113157    -0.14100
C1567       C  0.88346665  0.06218889  0.98342290     0.36500
C1568       C  0.92529166  0.06284458  0.99352383    -0.25500
C1569       C  0.93464405  0.02193592  0.99165851    -0.14700
C1570       C  0.90163691  0.97968569  0.97940098     0.37600
N1571       N  0.90982001  0.93707842  0.97759534    -0.89000
H1572       H  0.83429847  0.94587738  0.96011602     0.18700
H1573       H  0.95064099  0.09525498  0.00303096     0.18700
N1574       N  0.87461186  0.10451257  0.98547509    -0.88000
H1575       H  0.91415130  0.93153257  0.96173511     0.36100
H1576       H  0.87697309  0.90491056  0.98308545     0.41200
H1577       H  0.89886580  0.63206183  0.98522569     0.40800
H1578       H  0.85994321  0.59905976  0.00537724     0.35700
C1579       C  0.67907042  0.56691972  0.96896124    -0.26000
C1580       C  0.68573339  0.02546384  0.97011589    -0.14100
C1581       C  0.65270116  0.98523494  0.98330997     0.36500
C1582       C  0.61200491  0.98677682  0.99356587    -0.25500
C1583       C  0.60375567  0.02824005  0.99107663    -0.14700
C1584       C  0.63886972  0.56932122  0.97907146     0.37600
N1585       N  0.63737673  0.61582631  0.97818848    -0.89000
H1586       H  0.70743625  0.59966765  0.96035351     0.18700
H1587       H  0.58678899  0.95547817  0.00361936     0.18700
N1588       N  0.65992269  0.94229135  0.98605137    -0.88000
H1589       H  0.63781459  0.62838169  0.99347189     0.36100
H1590       H  0.60312565  0.60861650  0.97113469     0.41200
H1591       H  0.66516483  0.93892249  0.00199299     0.40800
H1592       H  0.62635683  0.90978640  0.98138951     0.35700
C1593       C  0.83161544  0.96426629  0.91495857    -0.26000
C1594       C  0.84501157  0.01077998  0.92459944    -0.14100
C1595       C  0.89212980  0.54896550  0.92271026     0.36500
C1596       C  0.92377352  0.54693024  0.90702758    -0.25500
C1597       C  0.90940176  0.00466512  0.89383120    -0.14700
C1598       C  0.86371957  0.96042335  0.89986094     0.37600
N1599       N  0.84950490  0.91207388  0.89046742    -0.89000
H1600       H  0.79533323  0.93113560  0.91892195     0.18700
H1601       H  0.96213535  0.57894857  0.90523852     0.18700
N1602       N  0.91010085  0.59326070  0.93559301    -0.88000
H1603       H  0.81401165  0.88398463  0.89620632     0.36100
H1604       H  0.87635386  0.90172674  0.89520018     0.41200
H1605       H  0.94282000  0.59844565  0.94344507     0.40800
H1606       H  0.92075416  0.62463405  0.92587304     0.35700
C1607       C  0.66324764  0.06049338  0.89637936    -0.26000
C1608       C  0.61887121  0.01385585  0.89229133    -0.14100
C1609       C  0.60914606  0.97072292  0.90449084     0.36500
C1610       C  0.64387425  0.97527599  0.91994823    -0.25500
C1611       C  0.68843701  0.02152807  0.92347524    -0.14700
C1612       C  0.69819748  0.06443285  0.91168655     0.37600
N1613       N  0.74428108  0.11177410  0.91494395    -0.89000
H1614       H  0.67149338  0.09403862  0.88743761     0.18700
H1615       H  0.62733837  0.44647047  0.93269271     0.18700
N1616       N  0.55359932  0.42970099  0.90670659    -0.88000
H1617       H  0.76458536  0.12256056  0.90082622     0.36100
H1618       H  0.73400833  0.13911622  0.91883681     0.41200
H1619       H  0.56576947  0.90997854  0.88594580     0.40800
H1620       H  0.53212558  0.92351919  0.90412298     0.35700
C1621       C  0.54422746  0.68086176  0.77584059    -0.26000
C1622       C  0.49579631  0.66950825  0.76848477    -0.14100
C1623       C  0.96266660  0.62922843  0.77309170     0.36500
C1624       C  0.96645036  0.59929791  0.78870915    -0.25500
C1625       C  0.50514644  0.60794718  0.79913070    -0.14700
C1626       C  0.54955760  0.65018153  0.79092341     0.37600
N1627       N  0.59968376  0.66211980  0.79797476    -0.89000
H1628       H  0.57787396  0.71464814  0.77018009     0.18700
H1629       H  0.93139268  0.56711281  0.79441248     0.18700
N1630       N  0.91265874  0.61689493  0.76596544    -0.88000
H1631       H  0.62793662  0.69504538  0.79068176     0.36100
H1632       H  0.60590722  0.63259027  0.79313097     0.41200
H1633       H  0.91039164  0.60924369  0.74999394     0.40800
H1634       H  0.90747950  0.64820083  0.76838438     0.35700
C1635       C  0.53257506  0.87567933  0.76900941    -0.26000
C1636       C  0.48939346  0.82710156  0.76919309    -0.14100
C1637       C  0.95805985  0.82044701  0.77949976     0.36500
C1638       C  0.96108354  0.85475035  0.79494885    -0.25500
C1639       C  0.49951506  0.89968387  0.79926678    -0.14700
C1640       C  0.53812546  0.91206849  0.78393541     0.37600
N1641       N  0.58340122  0.96102809  0.78360935    -0.89000
H1642       H  0.56314050  0.88466883  0.75783136     0.18700
H1643       H  0.92674316  0.84645406  0.80364180     0.18700
N1644       N  0.91049569  0.77487540  0.77581631    -0.88000
H1645       H  0.58581060  0.97748400  0.76900434     0.36100
H1646       H  0.61517351  0.95582943  0.78517620     0.41200
H1647       H  0.88306887  0.78516829  0.77194688     0.40800
H1648       H  0.89896712  0.75430211  0.78977906     0.35700
C1649       C  0.52770363  0.61362134  0.71138894    -0.26000
C1650       C  0.48077695  0.57470269  0.70384228    -0.14100
C1651       C  0.94332922  0.58290734  0.70312023     0.36500
C1652       C  0.94866270  0.62810885  0.71166702    -0.25500
C1653       C  0.48715951  0.66267214  0.72220691    -0.14700
C1654       C  0.53142795  0.65785346  0.72035888     0.37600
N1655       N  0.57998341  0.69813889  0.72747017    -0.89000
H1656       H  0.56174530  0.61010863  0.70965241     0.18700
H1657       H  0.91522198  0.63275859  0.71309984     0.18700
N1658       N  0.89403054  0.54366106  0.69642624    -0.88000
H1659       H  0.60875273  0.68871909  0.72507170     0.36100
H1660       H  0.58945488  0.73004575  0.71823820     0.41200
H1661       H  0.86924836  0.53262541  0.70930954     0.40800
H1662       H  0.88030541  0.55918113  0.68532373     0.35700
C1663       C  0.94667189  0.87140802  0.70865837    -0.26000
C1664       C  0.49210554  0.91649140  0.70426147    -0.14100
C1665       C  0.53496438  0.90873355  0.70363683     0.36500
C1666       C  0.53115175  0.86480712  0.71269885    -0.25500
C1667       C  0.48610562  0.82877658  0.72275657    -0.14700
C1668       C  0.94670276  0.82940804  0.71785488     0.37600
N1669       N  0.89810570  0.78531442  0.72244761    -0.89000
H1670       H  0.91035651  0.86926349  0.70517417     0.18700
H1671       H  0.56427884  0.85944278  0.71241171     0.18700
N1672       N  0.58335411  0.94522990  0.69467039    -0.88000
H1673       H  0.87944112  0.79591704  0.73353418     0.36100
H1674       H  0.90241676  0.75627735  0.72913158     0.41200
H1675       H  0.58232361  0.97680163  0.68877139     0.40800
H1676       H  0.59121749  0.92783352  0.68216142     0.35700
C1677       C  0.52551246  0.84718210  0.58145391    -0.26000
C1678       C  0.48168851  0.82416362  0.59416536    -0.14100
C1679       C  0.94453520  0.82461631  0.58656066     0.36500
C1680       C  0.95009095  0.86089909  0.57180769    -0.25500
C1681       C  0.99864705  0.89612258  0.56379972    -0.14700
C1682       C  0.53208859  0.88371803  0.56661641     0.37600
N1683       N  0.57649566  0.90481359  0.55338937    -0.89000
H1684       H  0.55402100  0.83522401  0.58254602     0.18700
H1685       H  0.91580767  0.86007994  0.56605123     0.18700
N1686       N  0.89447027  0.78691846  0.59339979    -0.88000
H1687       H  0.57708317  0.87501417  0.54532934     0.36100
H1688       H  0.60895290  0.92211877  0.56290385     0.41200
H1689       H  0.87644349  0.80558914  0.60005228     0.40800
H1690       H  0.87345990  0.76700637  0.58026223     0.35700
C1691       C  0.51190198  0.65236353  0.59105006    -0.26000
C1692       C  0.46761274  0.65667747  0.59168839    -0.14100
C1693       C  0.93307632  0.62531874  0.57903112     0.36500
C1694       C  0.93859633  0.59514810  0.56376291    -0.25500
C1695       C  0.47797566  0.59348450  0.56167247    -0.14700
C1696       C  0.51748853  0.62115533  0.57628554     0.37600
N1697       N  0.56385168  0.61853989  0.57607401    -0.89000
H1698       H  0.54327249  0.67485595  0.60156910     0.18700
H1699       H  0.90629595  0.57208524  0.55372241     0.18700
N1700       N  0.88447152  0.62369506  0.58077442    -0.88000
H1701       H  0.56805694  0.60597228  0.59075049     0.36100
H1702       H  0.59459542  0.65525396  0.57379017     0.41200
H1703       H  0.88424758  0.64666584  0.59291960     0.40800
H1704       H  0.85705365  0.58652906  0.58479069     0.35700
C1705       C  0.51758458  0.62038411  0.65867376    -0.26000
C1706       C  0.47441054  0.57149284  0.65806934    -0.14100
C1707       C  0.93178314  0.56074946  0.64532545     0.36500
C1708       C  0.93062247  0.60231944  0.63625507    -0.25500
C1709       C  0.47341977  0.65431059  0.63815792    -0.14700
C1710       C  0.51749848  0.66189713  0.64893848     0.37600
N1711       N  0.56210391  0.71159067  0.64979166    -0.89000
H1712       H  0.55150883  0.62614960  0.66690988     0.18700
H1713       H  0.89665333  0.59612034  0.62791705     0.18700
N1714       N  0.88685603  0.51141181  0.64350979    -0.88000
H1715       H  0.57619171  0.72190035  0.63456387     0.36100
H1716       H  0.59113404  0.71073814  0.65844428     0.41200
H1717       H  0.89103079  0.48352576  0.65131411     0.40800
H1718       H  0.85651605  0.51301341  0.65086945     0.35700
C1719       C  0.52425813  0.91403023  0.64925208    -0.26000
C1720       C  0.47994813  0.90893756  0.65895444    -0.14100
C1721       C  0.93261567  0.86187523  0.65390560     0.36500
C1722       C  0.93271034  0.81982108  0.64458739    -0.25500
C1723       C  0.48060289  0.82379472  0.64076504    -0.14700
C1724       C  0.52553345  0.87208116  0.64052087     0.37600
N1725       N  0.57337662  0.87973028  0.63214481    -0.89000
H1726       H  0.55884201  0.95081670  0.64906898     0.18700
H1727       H  0.89648204  0.78653711  0.64077021     0.18700
N1728       N  0.88397136  0.85822726  0.65856416    -0.88000
H1729       H  0.58254383  0.90353362  0.61915286     0.36100
H1730       H  0.57069728  0.84572950  0.62702440     0.41200
H1731       H  0.88828167  0.89149974  0.66534079     0.40800
H1732       H  0.86543956  0.82942373  0.66965051     0.35700
C1733       C  0.63880380  0.66688689  0.44431748    -0.26000
C1734       C  0.67948689  0.65910933  0.43881546    -0.14100
C1735       C  0.68419438  0.61948674  0.44824631     0.36500
C1736       C  0.64862336  0.58960637  0.46358774    -0.25500
C1737       C  0.60873531  0.59856148  0.46974520    -0.14700
C1738       C  0.60343158  0.63712498  0.45963263     0.37600
N1739       N  0.56297061  0.64718737  0.46511638    -0.89000
H1740       H  0.63564378  0.69769354  0.43722152     0.18700
H1741       H  0.65269782  0.55957392  0.47090110     0.18700
N1742       N  0.72507537  0.60944144  0.44314818    -0.88000
H1743       H  0.54165878  0.64317885  0.45165706     0.36100
H1744       H  0.57945601  0.68493295  0.47011390     0.41200
H1745       H  0.74967319  0.63446102  0.43182280     0.40800
H1746       H  0.70851077  0.57306718  0.43659489     0.35700
C1747       C  0.88438874  0.83793540  0.43799079    -0.26000
C1748       C  0.83303691  0.82591925  0.43740570    -0.14100
C1749       C  0.81564543  0.85143376  0.45077808     0.36500
C1750       C  0.84944210  0.88654103  0.46536965    -0.25500
C1751       C  0.90011505  0.89630846  0.46689962    -0.14700
C1752       C  0.91813282  0.87303524  0.45254954     0.37600
N1753       N  0.97050603  0.88450855  0.45278626    -0.89000
H1754       H  0.89782462  0.81842559  0.42771520     0.18700
H1755       H  0.83558031  0.90487368  0.47607825     0.18700
N1756       N  0.76314212  0.84002994  0.44994039    -0.88000
H1757       H  0.98641642  0.89847411  0.43805249     0.36100
H1758       H  0.97105806  0.85066743  0.45525366     0.41200
H1759       H  0.75720004  0.85114444  0.43523846     0.40800
H1760       H  0.75625461  0.86152396  0.46097227     0.35700
C1761       C  0.67677233  0.60744748  0.39134245    -0.26000
C1762       C  0.67622885  0.65341890  0.39288548    -0.14100
C1763       C  0.63325920  0.65605410  0.38535612     0.36500
C1764       C  0.59356679  0.61354524  0.37537827    -0.25500
C1765       C  0.59477376  0.56801969  0.37355834    -0.14700
C1766       C  0.63601234  0.56458680  0.38204753     0.37600
N1767       N  0.63676976  0.51771913  0.38099955    -0.89000
H1768       H  0.70894458  0.60477331  0.39743538     0.18700
H1769       H  0.56150370  0.61601879  0.36897807     0.18700
N1770       N  0.62833867  0.70072926  0.38763608    -0.88000
H1771       H  0.63881284  0.50668284  0.39627525     0.36100
H1772       H  0.67013812  0.52441159  0.37312948     0.41200
H1773       H  0.65965586  0.72992203  0.39533846     0.40800
H1774       H  0.59635972  0.69105236  0.39714175     0.35700
C1775       C  0.91910499  0.85622652  0.37141358    -0.26000
C1776       C  0.92507275  0.90515039  0.37234237    -0.14100
C1777       C  0.88715769  0.91225978  0.38251136     0.36500
C1778       C  0.84480431  0.87068430  0.39175538    -0.25500
C1779       C  0.83905366  0.82176594  0.39088387    -0.14700
C1780       C  0.87639927  0.81457073  0.38028734     0.37600
N1781       N  0.87258677  0.76562272  0.37872258    -0.89000
H1782       H  0.94773998  0.85032092  0.36351192     0.18700
H1783       H  0.81637968  0.87660259  0.39985365     0.18700
N1784       N  0.89026704  0.96097547  0.38335216    -0.88000
H1785       H  0.83937949  0.74142393  0.37043681     0.36100
H1786       H  0.86961860  0.75110791  0.39377821     0.41200
H1787       H  0.89243497  0.97402360  0.36806830     0.40800
H1788       H  0.92384449  0.98622910  0.39116862     0.35700
loop_ 
_geom_bond_atom_site_label_1 
_geom_bond_atom_site_label_2 
_geom_bond_distance 
_geom_bond_site_symmetry_2 
_ccdc_geom_bond_type 
C1            C2   1.412       .  A
C1            C6   1.412       .  A
C1          C438   1.488       .  S
C2            C3   1.395       .  A
C2          C407   1.477       .  S
C3            C4   1.393       .  A
C3            H8   1.085       .  S
C4            C5   1.410       .  A
C4          C393   1.475       .  S
C5            C6   1.412       .  A
C5          C421   1.487       .  S
C6            H7   1.084       .  S
C9           C10   1.409       .  A
C9           C14   1.411       .  A
C9          C382   1.483       .  S
C10          C11   1.392       .  A
C10         C337   1.473       .  S
C11          C12   1.394       .  A
C11         H910   1.086       .  S
C12          C13   1.412       .  A
C12         C351   1.474       .  S
C13          C14   1.413       .  A
C13         C368   1.490       .  S
C14          H15   1.084       .  S
H16         C905   1.086       .  S
O17         C914   1.272       .  A
O17       Cd1363   2.447       .  S
C18         C410   1.480       .  S
C18          O27   1.263       .  A
C18          O23   1.271       .  A
O19          C25   1.271       .  A
O19        Cd469   2.470   1_545  S
C20         C354   1.481       .  S
C20          O28   1.265   1_655  A
C20         O911   1.270       .  A
C21         C340   1.480       .  S
C21          O24   1.266       .  A
C21         O920   1.269       .  A
Cd22         O26   2.451   1_655  S
Cd22       O1358   2.457       .  S
Cd22        O466   2.465   1_655  S
Cd22        O476   2.427   1_655  S
Cd22        O475   2.424   1_655  S
Cd22        O921   2.394       .  S
Cd22        O917   2.476       .  S
Cd22        O918   2.416       .  S
O23        Cd916   2.474       .  S
O24        Cd916   2.407       .  S
C25         C396   1.482       .  S
C25          O29   1.264       .  A
O26         C915   1.270   1_455  A
O27        Cd916   2.409       .  S
O28        Cd469   2.414   1_545  S
O29        Cd469   2.402   1_545  S
C30          C31   1.414       .  A
C30          C35   1.399       .  A
C30         C295   1.486       .  S
C31          C32   1.413       .  A
C31         C326   1.486       .  S
C32          C33   1.411       .  A
C32          H37   1.084       .  S
C33          C34   1.412       .  A
C33         C312   1.489       .  S
C34          C35   1.398       .  A
C34         C281   1.478   1_655  S
C35          H36   1.085       .  S
O38         C935   1.270       .  A
O38        Cd937   2.444       .  S
C39         C703   1.483       .  S
C39          O48   1.267       .  A
C39         O491   1.270   1_545  A
O40         C493   1.272       .  A
O40        Cd490   2.453       .  S
C41         C298   1.485   1_455  S
C41          O49   1.266       .  A
C41         O932   1.270   1_455  A
C42        C1178   1.477       .  S
C42          O45   1.265       .  A
C42         O941   1.272       .  A
Cd43         O50   2.421       .  S
Cd43         O49   2.439       .  S
Cd43        O932   2.467   1_455  S
Cd43        O487   2.473       .  S
Cd43       O1389   2.415   1_455  S
Cd43        O938   2.448   1_455  S
Cd43        O494   2.471       .  S
Cd43       O1386   2.407   1_455  S
O44         C486   1.268       .  A
O44        Cd937   2.475       .  S
O45       Cd1384   2.391       .  S
C46         C267   1.487       .  S
C46          O50   1.264       .  A
C46         O487   1.271       .  A
O47         C936   1.270       .  A
O47        Cd490   2.483       .  S
O48       Cd1384   2.433       .  S
C51          C52   1.406       .  A
C51          C56   1.408       .  A
C51         C239   1.472       .  S
C52          C53   1.391       .  A
C52         C270   1.478       .  S
C53          C54   1.397       .  A
C53          H58   1.086       .  S
C54          C55   1.418       .  A
C54         C253   1.474       .  S
C55          C56   1.411       .  A
C55         C225   1.495       .  S
C56          H57   1.084       .  S
C59          C60   1.408       .  A
C59          C64   1.391       .  A
C59         C169   1.476       .  S
C60          C61   1.411       .  A
C60         C211   1.481       .  S
C61          C62   1.414       .  A
C61          H66   1.084       .  S
C62          C63   1.415       .  A
C62         C197   1.491       .  S
C63          C64   1.394       .  A
C63         C186   1.475       .  S
C64          H65   1.086       .  S
C67          C68   1.414       .  A
C67         C966   1.408       .  A
C67         C214   1.486       .  S
C68         C963   1.404       .  A
C68         C435   1.491       .  S
C69         C962   1.408   1_455  A
C69         C517   1.409       .  A
C69          H74   1.084       .  S
C70          C71   1.413       .  A
C70         C516   1.406   1_545  A
C70         C424   1.486       .  S
C71         C519   1.405   1_545  A
C71         C200   1.487       .  S
C72         C961   1.407   1_455  A
C72         C518   1.407       .  A
C72          H73   1.084       .  S
O75         C525   1.269       .  A
O75       Cd1421   2.482       .  S
C76         C183   1.483       .  S
C76          O85   1.266       .  A
C76          O81   1.270       .  A
O77          C83   1.270       .  A
O77        Cd974   2.458       .  S
C78         C141   1.487       .  S
C78          O86   1.266       .  A
C78         O522   1.271       .  A
C79         C155   1.484       .  S
C79          O82   1.265       .  A
C79         O531   1.270   1_545  A
Cd80         O84   2.468       .  S
Cd80       O1416   2.471   1_455  S
Cd80        O971   2.467   1_455  S
Cd80        O981   2.404   1_455  S
Cd80        O980   2.437   1_455  S
Cd80        O532   2.423       .  S
Cd80        O528   2.460       .  S
Cd80        O529   2.409       .  S
O81        Cd527   2.459       .  S
O82        Cd527   2.408       .  S
C83         C172   1.482       .  S
C83          O87   1.266       .  A
O84         C526   1.271       .  A
O85        Cd527   2.425       .  S
O86        Cd974   2.431       .  S
O87        Cd974   2.437       .  S
C88          C93   1.394       .  A
C88         C536   1.411       .  A
C88         C158   1.476       .  S
C89          C90   1.411       .  A
C89         C535   1.412       .  A
C89         C127   1.491       .  S
C90          C91   1.413       .  A
C90          H95   1.084       .  S
C91         C539   1.414       .  A
C91         C113   1.486       .  S
C92          C93   1.395       .  A
C92         C538   1.416       .  A
C92         C591   1.477       .  S
C93          H94   1.086       .  S
C96          C97   1.411       .  A
C96         C101   1.404   1_554  A
C96         C242   1.476   1_554  S
C97          C98   1.404       .  A
C97         C130   1.491       .  S
C98         C993   1.408   1_455  A
C98         H103   1.084       .  S
C99         C100   1.418       .  A
C99         C992   1.407       .  A
C99         C116   1.489       .  S
C100        C995   1.405   1_554  A
C100        C228   1.492   1_554  S
C101        C994   1.403   1_456  A
C101        H102   1.084       .  S
C104        C105   1.413       .  A
C104        C556   1.404       .  A
C104        C379   1.485       .  S
C105        C553   1.407       .  A
C105        C323   1.487       .  S
C106        C107   1.408   1_565  A
C106        C552   1.407       .  A
C106        H111   1.084   1_565  S
C107        C108   1.417       .  A
C107        C309   1.490       .  S
C108        C109   1.410   1_545  A
C108        C365   1.493       .  S
C109        C551   1.407       .  A
C109        H110   1.084       .  S
C112        C117   1.410       .  A
C112        C560   1.406       .  A
C112        H119   1.083       .  S
C113        C114   1.414       .  A
C113        C559   1.405       .  A
C114        C115   1.397       .  A
C114        N121   1.433       .  S
C115        C116   1.404       .  A
C115        H120   1.083       .  S
C116        C564   1.411       .  A
C117        C563   1.414       .  A
C117        N118   1.437       .  S
N118        H122   1.045       .  S
N118        H123   1.046       .  S
N121        H124   1.044       .  S
N121        H125   1.044       .  S
C126        C127   1.404       .  A
C126        C131   1.404       .  A
C126        H133   1.082       .  S
C127        C575   1.410       .  A
C128        C129   1.405       .  A
C128        C574   1.407       .  A
C128        N135   1.432       .  S
C129        C577   1.405       .  A
C129        H134   1.083       .  S
C130        C131   1.407       .  A
C130        C576   1.406       .  A
C131        N132   1.432       .  S
N132        H136   1.046       .  S
N132        H137   1.045       .  S
N135        H585   1.045       .  S
N135        H586   1.046       .  S
H138        N582   1.047       .  S
H139        N582   1.045       .  S
C140        C141   1.408       .  A
C140        C145   1.399       .  A
C140        H147   1.084       .  S
C141        C589   1.413       .  A
C142        C143   1.406       .  A
C142        C588   1.413       .  A
C142        N149   1.432       .  S
C143        C591   1.404       .  A
C143        H148   1.084       .  S
C144        C145   1.409       .  A
C144        C590   1.402       .  A
C144        C539   1.480       .  S
C145        N146   1.431       .  S
N146        H150   1.044       .  S
N146        H151   1.045       .  S
N149        H152   1.046       .  S
N149        H153   1.046       .  S
C154        C155   1.407       .  A
C154        C159   1.394       .  A
C154        H161   1.083       .  S
C155        C603   1.413   1_545  A
C156        C157   1.403       .  A
C156        C602   1.412       .  A
C156        N163   1.432       .  S
C157        C605   1.401       .  A
C157        H162   1.084       .  S
C158        C159   1.406       .  A
C158        C604   1.403   1_545  A
C159        N160   1.433       .  S
N160        H164   1.045       .  S
N160        H165   1.045       .  S
N163        H166   1.045       .  S
N163        H167   1.046       .  S
C168        C169   1.401       .  A
C168        C173   1.404       .  A
C168        H175   1.083       .  S
C169        C170   1.413       .  A
C170        C171   1.399       .  A
C170        N177   1.439       .  S
C171        C172   1.406       .  A
C171        H176   1.084       .  S
C172        C173   1.414       .  A
C173        N174   1.437       .  S
N174        H178   1.046       .  S
N174        H179   1.046       .  S
N177        H180   1.043       .  S
N177        H181   1.045       .  S
C182        C183   1.409       .  A
C182        C187   1.400       .  A
C182        H189   1.083       .  S
C183        C184   1.415       .  A
C184        C185   1.404       .  A
C184        N191   1.438       .  S
C185        C186   1.401       .  A
C185        H190   1.084       .  S
C186        C187   1.402       .  A
C187        N188   1.432       .  S
N188        H192   1.046       .  S
N188        H193   1.045       .  S
N191        H194   1.046       .  S
N191        H195   1.046       .  S
C196        C197   1.405       .  A
C196        C201   1.402       .  A
C196        H203   1.084       .  S
C197        C198   1.419       .  A
C198        C199   1.404       .  A
C198        N205   1.439       .  S
C199        C200   1.404       .  A
C199        H204   1.084       .  S
C200        C201   1.416       .  A
C201        N202   1.439       .  S
N202        H206   1.045       .  S
N202        H207   1.043       .  S
N205        H208   1.042       .  S
N205        H209   1.046       .  S
C210        C211   1.403       .  A
C210        C215   1.403       .  A
C210        H217   1.084       .  S
C211        C212   1.414       .  A
C212        C213   1.400       .  A
C212        N219   1.438       .  S
C213        C214   1.403       .  A
C213        H218   1.083       .  S
C214        C215   1.417       .  A
C215        N216   1.438       .  S
N216        H220   1.045       .  S
N216        H221   1.043       .  S
N219        H222   1.043       .  S
N219        H223   1.045       .  S
C224        C225   1.405       .  A
C224        C229   1.409       .  A
C224        H231   1.083       .  S
C225        C226   1.411       .  A
C226        C227   1.404       .  A
C226        N233   1.432       .  S
C227        C228   1.403       .  A
C227        H232   1.084   1_556  S
C228        C229   1.413       .  A
C229        N230   1.438       .  S
N230        H234   1.045       .  S
N230        H235   1.046       .  S
N233        H683   1.046       .  S
N233        H684   1.046   1_556  S
H236        N680   1.046       .  S
H237        N680   1.045   1_554  S
C238        C243   1.399       .  A
C238        C686   1.403       .  A
C238        H245   1.084       .  S
C239        C240   1.404       .  A
C239        C685   1.400       .  A
C240        C241   1.399       .  A
C240        N247   1.432       .  S
C241        C242   1.402       .  A
C241        H246   1.084       .  S
C242        C690   1.417       .  A
C243        C689   1.413       .  A
C243        N244   1.433       .  S
N244        H248   1.045       .  S
N244        H249   1.045       .  S
N247        H250   1.045       .  S
N247        H251   1.046       .  S
C252        C253   1.404       .  A
C252        C257   1.401       .  A
C252        H259   1.084       .  S
C253        C701   1.402       .  A
C254        C255   1.402       .  A
C254        C700   1.403       .  A
C254        N261   1.432       .  S
C255        C703   1.409       .  A
C255        H260   1.083       .  S
C256        C257   1.410       .  A
C256        C702   1.406       .  A
C256        C486   1.476       .  S
C257        N258   1.432       .  S
N258        H262   1.046       .  S
N258        H263   1.045       .  S
N261        H264   1.046       .  S
N261        H265   1.045       .  S
C266        C267   1.406       .  A
C266        C271   1.401       .  A
C266        H273   1.083       .  S
C267        C268   1.424       .  A
C268        C269   1.399       .  A
C268        N722   1.433       .  S
C269        C270   1.398       .  A
C269        H721   1.083       .  S
C270        C271   1.404       .  A
C271        N272   1.432       .  S
N272        H276   1.045       .  S
N272        H277   1.046       .  S
H274        C716   1.084       .  S
N275        C715   1.433       .  S
N275        H725   1.044       .  S
N275        H726   1.046       .  S
H278        N722   1.044       .  S
H279        N722   1.046       .  S
C280        C281   1.402       .  A
C280        C285   1.408       .  A
C280        H287   1.084       .  S
C281       C1176   1.408   1_455  A
C282        C283   1.393       .  A
C282       C1175   1.407       .  A
C282        N289   1.433       .  S
C283       C1178   1.406       .  A
C283        H288   1.084       .  S
C284        C285   1.416       .  A
C284       C1177   1.408   1_455  A
C284        C936   1.487       .  S
C285        N286   1.437       .  S
N286        H290   1.046       .  S
N286        H291   1.046       .  S
N289        H292   1.045       .  S
N289        H293   1.045       .  S
C294        C295   1.401   1_455  A
C294        C299   1.404       .  A
C294        H301   1.083       .  S
C295       C1190   1.409       .  A
C296        C297   1.401       .  A
C296       C1189   1.407       .  A
C296        N303   1.432       .  S
C297       C1192   1.405       .  A
C297        H302   1.084       .  S
C298        C299   1.415   1_655  A
C298       C1191   1.404       .  A
C299        N300   1.433       .  S
N300        H304   1.046       .  S
N300        H305   1.045       .  S
N303        H306   1.046       .  S
N303        H307   1.046       .  S
C308        C309   1.404   1_455  A
C308        C313   1.411       .  A
C308        H315   1.083       .  S
C309       C1204   1.408       .  A
C310        C311   1.403       .  A
C310       C1203   1.406       .  A
C310        N317   1.431       .  S
C311       C1206   1.401       .  A
C311        H316   1.083       .  S
C312        C313   1.411   1_655  A
C312       C1205   1.402       .  A
C313        N314   1.437       .  S
N314        H318   1.045       .  S
N314        H319   1.046       .  S
N317        H320   1.045       .  S
N317        H321   1.045       .  S
C322        C327   1.404       .  A
C322       C1217   1.403       .  A
C322        H329   1.084       .  S
C323        C324   1.417   1_655  A
C323       C1216   1.403       .  A
C324        C325   1.403       .  A
C324        N331   1.438       .  S
C325        C326   1.403   1_455  A
C325        H330   1.084       .  S
C326       C1221   1.417       .  A
C327       C1220   1.417       .  A
C327        N328   1.438       .  S
N328        H332   1.045       .  S
N328        H333   1.043       .  S
N331        H334   1.043       .  S
N331        H335   1.045       .  S
C336        C337   1.400   1_455  A
C336        C341   1.404       .  A
C336        H343   1.084       .  S
C337       C1232   1.402       .  A
C338        C339   1.398       .  A
C338       C1231   1.401       .  A
C338        N345   1.432       .  S
C339        C340   1.407       .  A
C339        H344   1.084       .  S
C340       C1235   1.415       .  A
C341       C1234   1.415   1_455  A
C341        N342   1.438       .  S
N342        H346   1.046       .  S
N342        H347   1.045       .  S
N345        H348   1.046       .  S
N345        H349   1.045       .  S
C350        C351   1.398   1_455  A
C350        C355   1.397       .  A
C350        H357   1.084       .  S
C351       C1246   1.416       .  A
C352        C353   1.397       .  A
C352       C1245   1.413       .  A
C352        N359   1.439       .  S
C353       C1248   1.405       .  A
C353        H358   1.084       .  S
C354        C355   1.414   1_655  A
C354       C1247   1.405       .  A
C355        N356   1.432       .  S
N356        H360   1.046       .  S
N356        H361   1.046       .  S
N359        H362   1.044       .  S
N359        H363   1.046       .  S
C364        C365   1.405   1_455  A
C364        C369   1.407       .  A
C364        H371   1.084       .  S
C365       C1260   1.420       .  A
C366        C367   1.409       .  A
C366       C1259   1.422       .  A
C366        N373   1.439       .  S
C367       C1262   1.404       .  A
C367        H372   1.084       .  S
C368        C369   1.410   1_655  A
C368       C1261   1.404       .  A
C369        N370   1.438       .  S
N370        H374   1.046       .  S
N370        H375   1.045       .  S
N373        H376   1.043   1_545  S
N373        H377   1.045       .  S
C378        C379   1.403   1_455  A
C378        C383   1.404       .  A
C378        H385   1.084       .  S
C379       C1274   1.415       .  A
C380        C381   1.402       .  A
C380       C1273   1.415       .  A
C380        N387   1.438       .  S
C381       C1276   1.403       .  A
C381        H386   1.084       .  S
C382        C383   1.417   1_655  A
C382       C1275   1.402       .  A
C383        N384   1.438       .  S
N384        H388   1.046       .  S
N384        H389   1.043       .  S
N387        H390   1.044       .  S
N387        H391   1.045       .  S
C392        C393   1.397       .  A
C392        C397   1.398       .  A
C392        H399   1.084       .  S
C393        C394   1.416       .  A
C394        C395   1.401       .  A
C394        N401   1.439       .  S
C395        C396   1.405       .  A
C395        H400   1.084       .  S
C396        C397   1.415       .  A
C397        N398   1.433       .  S
N398        H402   1.046       .  S
N398        H403   1.046       .  S
N401        H404   1.043       .  S
N401        H405   1.046       .  S
C406        C407   1.398       .  A
C406        C411   1.401       .  A
C406        H413   1.084       .  S
C407        C408   1.410       .  A
C408        C409   1.403       .  A
C408        N415   1.438       .  S
C409        C410   1.403       .  A
C409        H414   1.083       .  S
C410        C411   1.416       .  A
C411        N412   1.433       .  S
N412        H416   1.046       .  S
N412        H417   1.046       .  S
N415        H418   1.045       .  S
N415        H419   1.046       .  S
C420        C421   1.405       .  A
C420        C425   1.405       .  A
C420        H427   1.084       .  S
C421        C422   1.419       .  A
C422        C423   1.403       .  A
C422        N429   1.439       .  S
C423        C424   1.402       .  A
C423        H428   1.084       .  S
C424        C425   1.406       .  A
C425        N426   1.432       .  S
N426        H430   1.046       .  S
N426        H431   1.046       .  S
N429        H432   1.042       .  S
N429        H433   1.046       .  S
C434        C435   1.404       .  A
C434        C439   1.400       .  A
C434        H441   1.083       .  S
C435        C436   1.414       .  A
C436        C437   1.403       .  A
C436        N443   1.432       .  S
C437        C438   1.405       .  A
C437        H442   1.083       .  S
C438        C439   1.413       .  A
C439        N440   1.432       .  S
N440        H444   1.045       .  S
N440        H445   1.045       .  S
N443        H446   1.045       .  S
N443        H447   1.045       .  S
C448        C449   1.416       .  A
C448        C453   1.413       .  A
C448        C885   1.488       .  S
C449        C450   1.397       .  A
C449        C854   1.483       .  S
C450        C451   1.393       .  A
C450        H455   1.085       .  S
C451        C452   1.409       .  A
C451        C840   1.475       .  S
C452        C453   1.411       .  A
C452        C868   1.489       .  S
C453        H454   1.084       .  S
C456        C457   1.409       .  A
C456        C461   1.409       .  A
C456        C829   1.485       .  S
C457        C458   1.393       .  A
C457        C784   1.468       .  S
C458        C459   1.392       .  A
C458       H1357   1.085       .  S
C459        C460   1.409       .  A
C459        C798   1.476       .  S
C460        C461   1.412       .  A
C460        C815   1.479       .  S
C461        H462   1.084       .  S
H463       C1352   1.085       .  S
O464       C1361   1.271       .  A
O464       Cd916   2.478       .  S
C465        C857   1.481       .  S
C465        O474   1.265       .  A
C465        O470   1.272       .  A
O466        C472   1.270       .  A
C467        C801   1.483       .  S
C467       O1358   1.271       .  A
C467        O475   1.265   1_655  A
C468        C787   1.480       .  S
C468       O1367   1.271       .  A
C468        O471   1.266       .  A
Cd469       O911   2.458   1_465  S
Cd469      O1368   2.414   1_455  S
Cd469      O1364   2.460   1_455  S
Cd469       O473   2.471       .  S
Cd469      O1365   2.407   1_455  S
O470      Cd1363   2.463   1_565  S
O471      Cd1363   2.422   1_565  S
C472        C843   1.484       .  S
C472        O476   1.265       .  A
O473       C1362   1.270       .  A
O474      Cd1363   2.412   1_565  S
C477        C478   1.410   1_455  A
C477        C482   1.392       .  A
C477        C742   1.476       .  S
C478        C479   1.414       .  A
C478        C773   1.484       .  S
C479        C480   1.413       .  A
C479        H484   1.084       .  S
C480        C481   1.413   1_655  A
C480        C759   1.489       .  S
C481        C482   1.394       .  A
C481        C728   1.475       .  S
C482        H483   1.086       .  S
O485       C1382   1.271       .  A
O485      Cd1384   2.442   1_565  S
C486        O495   1.264       .  A
C488        C745   1.486       .  S
C488       O1379   1.271   1_455  A
C488        O496   1.265       .  A
C489       C1625   1.481       .  S
C489       O1388   1.271       .  A
C489        O492   1.264       .  A
Cd490      O1379   2.468   1_445  S
Cd490       O497   2.422   1_545  S
Cd490       O496   2.429   1_545  S
Cd490       O942   2.419   1_455  S
Cd490      O1385   2.461   1_445  S
Cd490       O939   2.413   1_455  S
O491      Cd1384   2.452   1_565  S
O492       Cd937   2.404       .  S
C493        C714   1.483       .  S
C493        O497   1.264   1_545  A
O494       C1383   1.270       .  A
O495       Cd937   2.404       .  S
C498        C499   1.410       .  A
C498        C503   1.408       .  A
C498        C686   1.478       .  S
C499        C500   1.394       .  A
C499        C717   1.478       .  S
C500        C501   1.393       .  A
C500        H505   1.086       .  S
C501        C502   1.412       .  A
C501        C700   1.474       .  S
C502        C503   1.409       .  A
C502        C672   1.484       .  S
C503        H504   1.084       .  S
C506        C507   1.411       .  A
C506        C511   1.392       .  A
C506        C616   1.478       .  S
C507        C508   1.414       .  A
C507        C658   1.488       .  S
C508        C509   1.416       .  A
C508        H513   1.084       .  S
C509        C510   1.415       .  A
C509        C644   1.495       .  S
C510        C511   1.395       .  A
C510        C633   1.478       .  S
C511        H512   1.086       .  S
C514        C515   1.415       .  A
C514       C1413   1.407       .  A
C514        C661   1.490       .  S
C515       C1410   1.407       .  A
C515        C882   1.487       .  S
C516       C1409   1.407   1_455  A
C516        H521   1.084       .  S
C517        C518   1.415       .  A
C517        C871   1.488       .  S
C518        C647   1.493       .  S
C519       C1408   1.404   1_455  A
C519        H520   1.084       .  S
O522       Cd974   2.471       .  S
C523        C630   1.484       .  S
C523        O532   1.266       .  A
C523        O528   1.271       .  A
O524        C530   1.269       .  A
O524      Cd1421   2.466   1_565  S
C525        C588   1.483       .  S
C525        O533   1.265   1_545  A
C526        C602   1.480       .  S
C526        O529   1.266       .  A
Cd527       O969   2.481   1_455  S
Cd527      O1418   2.469   1_445  S
Cd527      O1428   2.432   1_445  S
Cd527      O1427   2.421   1_445  S
Cd527       O531   2.485   1_545  S
C530        C619   1.484       .  S
C530        O534   1.266       .  A
O533      Cd1421   2.404   1_565  S
O534      Cd1421   2.441   1_565  S
C535        C540   1.395       .  A
C535        C605   1.474       .  S
C536        C537   1.410       .  A
C536        C574   1.488       .  S
C537        C538   1.412       .  A
C537        H542   1.083       .  S
C538        C560   1.493       .  S
C539        C540   1.394       .  A
C540        H541   1.086       .  S
C543        C544   1.412       .  A
C543        C548   1.403   1_554  A
C543        C689   1.480   1_554  S
C544        C545   1.404       .  A
C544        C577   1.488       .  S
C545       C1440   1.406   1_455  A
C545        H550   1.084       .  S
C546       C1439   1.405       .  A
C546        C547   1.419       .  A
C546        C563   1.497       .  S
C547       C1442   1.407   1_554  A
C547        C675   1.485   1_554  S
C548       C1441   1.403   1_456  A
C548        H549   1.084       .  S
C551        C552   1.412       .  A
C551        C826   1.489       .  S
C552        C770   1.487       .  S
C553        C554   1.406       .  A
C553        H558   1.084       .  S
C554        C555   1.416       .  A
C554        C756   1.491       .  S
C555        C556   1.406       .  A
C555        C812   1.486       .  S
C556        H557   1.084       .  S
C559        C564   1.409       .  A
C559        H566   1.083       .  S
C560        C561   1.417   1_545  A
C561        C562   1.399       .  A
C561        N568   1.434       .  S
C562        C563   1.404   1_565  A
C562        H567   1.083       .  S
C564        N565   1.437       .  S
N565        H569   1.047       .  S
N565        H570   1.045       .  S
N568        H571   1.045       .  S
N568        H572   1.042       .  S
C573        C574   1.403   1_565  A
C573        C578   1.403       .  A
C573        H580   1.083       .  S
C575        C576   1.409       .  A
C575        N582   1.432       .  S
C576        H581   1.083       .  S
C577        C578   1.418   1_545  A
C578        N579   1.439       .  S
N579        H583   1.046       .  S
N579        H584   1.042       .  S
C587        C588   1.406   1_565  A
C587        C592   1.393       .  A
C587        H594   1.083       .  S
C589        C590   1.404       .  A
C589        N596   1.432       .  S
C590        H595   1.084       .  S
C591        C592   1.407   1_545  A
C592        N593   1.431       .  S
N593        H597   1.043       .  S
N593        H598   1.045       .  S
N596        H599   1.045       .  S
N596        H600   1.046       .  S
C601        C602   1.407       .  A
C601        C606   1.395       .  A
C601        H608   1.084       .  S
C603        C604   1.406       .  A
C603        N610   1.432       .  S
C604        H609   1.084       .  S
C605        C606   1.408       .  A
C606        N607   1.433       .  S
N607        H611   1.045       .  S
N607        H612   1.045       .  S
N610        H613   1.046       .  S
N610        H614   1.046       .  S
C615        C616   1.401       .  A
C615        C620   1.406       .  A
C615        H622   1.084       .  S
C616        C617   1.415       .  A
C617        C618   1.399       .  A
C617        N624   1.439       .  S
C618        C619   1.405       .  A
C618        H623   1.084       .  S
C619        C620   1.415       .  A
C620        N621   1.437       .  S
N621        H625   1.046       .  S
N621        H626   1.046       .  S
N624        H627   1.043       .  S
N624        H628   1.046       .  S
C629        C630   1.409       .  A
C629        C634   1.401       .  A
C629        H636   1.084       .  S
C630        C631   1.414       .  A
C631        C632   1.404       .  A
C631        N638   1.438       .  S
C632        C633   1.402       .  A
C632        H637   1.084       .  S
C633        C634   1.402       .  A
C634        N635   1.432       .  S
N635        H639   1.046       .  S
N635        H640   1.045       .  S
N638        H641   1.046       .  S
N638        H642   1.046       .  S
C643        C644   1.406       .  A
C643        C648   1.404       .  A
C643        H650   1.084       .  S
C644        C645   1.419       .  A
C645        C646   1.405       .  A
C645        N652   1.439       .  S
C646        C647   1.405       .  A
C646        H651   1.084       .  S
C647        C648   1.417       .  A
C648        N649   1.439       .  S
N649        H653   1.045       .  S
N649        H654   1.042       .  S
N652        H655   1.042       .  S
N652        H656   1.046       .  S
C657        C658   1.404       .  A
C657        C662   1.406       .  A
C657        H664   1.084       .  S
C658        C659   1.417       .  A
C659        C660   1.403       .  A
C659        N666   1.438       .  S
C660        C661   1.403       .  A
C660        H665   1.083       .  S
C661        C662   1.418       .  A
C662        N663   1.438       .  S
N663        H667   1.045       .  S
N663        H668   1.043       .  S
N666        H669   1.043       .  S
N666        H670   1.046       .  S
C671        C672   1.404   1_565  A
C671        C676   1.405       .  A
C671        H678   1.083       .  S
C672        C673   1.408       .  A
C673        C674   1.401       .  A
C673        N680   1.432       .  S
C674        C675   1.403       .  A
C674        H679   1.084   1_556  S
C675        C676   1.412   1_545  A
C676        N677   1.438       .  S
N677        H681   1.045       .  S
N677        H682   1.046       .  S
C685        C690   1.401       .  A
C685        H692   1.084       .  S
C686        C687   1.406   1_545  A
C687        C688   1.400       .  A
C687        N694   1.432       .  S
C688        C689   1.402   1_565  A
C688        H693   1.084   1_556  S
C690        N691   1.439       .  S
N691        H695   1.046       .  S
N691        H696   1.042       .  S
N694        H697   1.046   1_556  S
N694        H698   1.045       .  S
C699        C700   1.400   1_565  A
C699        C704   1.400       .  A
C699        H706   1.084       .  S
C701        C702   1.397       .  A
C701        N708   1.432       .  S
C702        H707   1.084       .  S
C703        C704   1.413   1_545  A
C704        N705   1.432       .  S
N705        H709   1.045       .  S
N705        H710   1.046       .  S
N708        H711   1.045       .  S
N708        H712   1.046       .  S
C713        C714   1.403       .  A
C713        C718   1.398       .  A
C713        H720   1.084       .  S
C714        C715   1.424   1_545  A
C715        C716   1.400       .  A
C716        C717   1.399   1_565  A
C717        C718   1.406       .  A
C718        N719   1.433       .  S
N719        H723   1.046       .  S
N719        H724   1.045       .  S
C727        C728   1.402       .  A
C727        C732   1.406       .  A
C727        H734   1.084       .  S
C728       C1623   1.408   1_455  A
C729       C1622   1.407       .  A
C729        C730   1.394       .  A
C729        N736   1.433       .  S
C730       C1625   1.407       .  A
C730        H735   1.084       .  S
C731       C1624   1.407   1_455  A
C731        C732   1.415       .  A
C731       C1383   1.484       .  S
C732        N733   1.437       .  S
N733        H737   1.046       .  S
N733        H738   1.045       .  S
N736        H739   1.043       .  S
N736        H740   1.045       .  S
C741        C742   1.398       .  A
C741        C746   1.403       .  A
C741        H748   1.084       .  S
C742       C1637   1.405   1_455  A
C743       C1636   1.406       .  A
C743        C744   1.397       .  A
C743        N750   1.433       .  S
C744       C1639   1.403       .  A
C744        H749   1.083       .  S
C745       C1638   1.406   1_455  A
C745        C746   1.417       .  A
C746        N747   1.432       .  S
N747        H751   1.046       .  S
N747        H752   1.046       .  S
N750        H753   1.045       .  S
N750        H754   1.046       .  S
C755        C756   1.403   1_455  A
C755        C760   1.409       .  A
C755        H762   1.084       .  S
C756       C1651   1.409       .  A
C757       C1650   1.408       .  A
C757        C758   1.405       .  A
C757        N764   1.431       .  S
C758       C1653   1.402       .  A
C758        H763   1.084       .  S
C759       C1652   1.403       .  A
C759        C760   1.411   1_655  A
C760        N761   1.437       .  S
N761        H765   1.046       .  S
N761        H766   1.046       .  S
N764        H767   1.046       .  S
N764        H768   1.045       .  S
C769       C1664   1.402       .  A
C769        C774   1.403       .  A
C769        H776   1.084       .  S
C770       C1663   1.403       .  A
C770        C771   1.417   1_655  A
C771        C772   1.404       .  A
C771        N778   1.438       .  S
C772        C773   1.403   1_455  A
C772        H777   1.084       .  S
C773       C1668   1.416       .  A
C774       C1667   1.418       .  A
C774        N775   1.438       .  S
N775        H779   1.046       .  S
N775        H780   1.043       .  S
N778        H781   1.043       .  S
N778        H782   1.046       .  S
C783        C784   1.400   1_455  A
C783        C788   1.406       .  A
C783        H790   1.084       .  S
C784       C1679   1.399       .  A
C785       C1678   1.405       .  A
C785        C786   1.403       .  A
C785        N792   1.431       .  S
C786        C787   1.409       .  A
C786        H791   1.084       .  S
C787       C1682   1.409       .  A
C788       C1681   1.416   1_455  A
C788        N789   1.437       .  S
N789        H793   1.046       .  S
N789        H794   1.046       .  S
N792        H795   1.046       .  S
N792        H796   1.045       .  S
C797        C798   1.399   1_455  A
C797        C802   1.401       .  A
C797        H804   1.083       .  S
C798       C1693   1.414       .  A
C799       C1692   1.408       .  A
C799        C800   1.404       .  A
C799        N806   1.432       .  S
C800       C1695   1.406       .  A
C800        H805   1.083       .  S
C801       C1694   1.405       .  A
C801        C802   1.415   1_655  A
C802        N803   1.433       .  S
N803        H807   1.046       .  S
N803        H808   1.045       .  S
N806        H809   1.045       .  S
N806        H810   1.046       .  S
C811        C812   1.404   1_455  A
C811        C816   1.401       .  A
C811        H818   1.083       .  S
C812       C1707   1.419       .  A
C813       C1706   1.419       .  A
C813        C814   1.404       .  A
C813        N820   1.439       .  S
C814       C1709   1.403       .  A
C814        H819   1.084       .  S
C815       C1708   1.403       .  A
C815        C816   1.406   1_655  A
C816        N817   1.438       .  S
N817        H821   1.045       .  S
N817        H822   1.045       .  S
N820        H823   1.042       .  S
N820        H824   1.045       .  S
C825        C826   1.403   1_455  A
C825        C830   1.402       .  A
C825        H832   1.083       .  S
C826       C1721   1.418       .  A
C827       C1720   1.418       .  A
C827        C828   1.404       .  A
C827        N834   1.438       .  S
C828       C1723   1.403       .  A
C828        H833   1.084       .  S
C829       C1722   1.404       .  A
C829        C830   1.415   1_655  A
C830        N831   1.438       .  S
N831        H835   1.045       .  S
N831        H836   1.044       .  S
N834        H837   1.043       .  S
N834        H838   1.045       .  S
C839        C840   1.398       .  A
C839        C844   1.400       .  A
C839        H846   1.084       .  S
C840        C841   1.414       .  A
C841        C842   1.401       .  A
C841        N848   1.439       .  S
C842        C843   1.406       .  A
C842        H847   1.084       .  S
C843        C844   1.415       .  A
C844        N845   1.432       .  S
N845        H849   1.046       .  S
N845        H850   1.046       .  S
N848        H851   1.044       .  S
N848        H852   1.046       .  S
C853        C854   1.399       .  A
C853        C858   1.402       .  A
C853        H860   1.083       .  S
C854        C855   1.413       .  A
C855        C856   1.403       .  A
C855        N862   1.438       .  S
C856        C857   1.402       .  A
C856        H861   1.083       .  S
C857        C858   1.415       .  A
C858        N859   1.433       .  S
N859        H863   1.046       .  S
N859        H864   1.045       .  S
N862        H865   1.045       .  S
N862        H866   1.046       .  S
C867        C868   1.406       .  A
C867        C872   1.404       .  A
C867        H874   1.083       .  S
C868        C869   1.420       .  A
C869        C870   1.405       .  A
C869        N876   1.439       .  S
C870        C871   1.404       .  A
C870        H875   1.084       .  S
C871        C872   1.405       .  A
C872        N873   1.432       .  S
N873        H877   1.046       .  S
N873        H878   1.045       .  S
N876        H879   1.042       .  S
N876        H880   1.046       .  S
C881        C882   1.403       .  A
C881        C886   1.402       .  A
C881        H888   1.083       .  S
C882        C883   1.413       .  A
C883        C884   1.402       .  A
C883        N890   1.432       .  S
C884        C885   1.404       .  A
C884        H889   1.084       .  S
C885        C886   1.414       .  A
C886        N887   1.432       .  S
N887        H891   1.044       .  S
N887        H892   1.046       .  S
N890        H893   1.045       .  S
N890        H894   1.045       .  S
C895        C896   1.414       .  A
C895        C900   1.414       .  A
C895       C1332   1.493       .  S
C896        C897   1.392       .  A
C896       C1301   1.474       .  S
C897        C898   1.391       .  A
C897        H902   1.086       .  S
C898        C899   1.409       .  A
C898       C1287   1.474       .  S
C899        C900   1.413       .  A
C899       C1315   1.485       .  S
C900        H901   1.084       .  S
C903        C904   1.411       .  A
C903        C908   1.413       .  A
C903       C1276   1.483       .  S
C904        C905   1.391       .  A
C904       C1231   1.475       .  S
C905        C906   1.393       .  A
C906        C907   1.410       .  A
C906       C1245   1.471       .  S
C907        C908   1.412       .  A
C907       C1262   1.488       .  S
C908        H909   1.084       .  S
C912       C1304   1.480       .  S
C912        O921   1.263       .  A
C912        O917   1.271       .  A
O913        C919   1.272       .  A
O913      Cd1363   2.465       .  S
C914       C1248   1.483       .  S
C914        O922   1.266       .  A
C915       C1234   1.482       .  S
C915        O918   1.266       .  A
Cd916      O1360   2.458       .  S
Cd916      O1370   2.406       .  S
Cd916      O1369   2.421       .  S
Cd916       O920   2.450       .  S
C919       C1290   1.484       .  S
C919        O923   1.265       .  A
O922      Cd1363   2.419       .  S
O923      Cd1363   2.409       .  S
C924        C925   1.413       .  A
C924        C929   1.396       .  A
C924       C1189   1.477       .  S
C925        C926   1.410       .  A
C925       C1220   1.487       .  S
C926        C927   1.409       .  A
C926        H931   1.084       .  S
C927        C928   1.409       .  A
C927       C1206   1.483       .  S
C928        C929   1.394       .  A
C928       C1175   1.473       .  S
C929        H930   1.085       .  S
C933       C1597   1.485       .  S
C933        O942   1.266       .  A
C933       O1385   1.272   1_545  A
O934       C1387   1.272       .  A
O934      Cd1384   2.460       .  S
C935       C1192   1.480       .  S
C935        O943   1.266       .  A
C936        O939   1.266   1_455  A
Cd937      O1381   2.488       .  S
Cd937       O944   2.425       .  S
Cd937       O943   2.416       .  S
Cd937      O1388   2.476       .  S
O938       C1380   1.270       .  A
C940       C1161   1.486       .  S
C940       O1381   1.270       .  A
C940        O944   1.263       .  A
O941      Cd1384   2.466       .  S
C945        C946   1.409       .  A
C945        C950   1.411       .  A
C945       C1133   1.476       .  S
C946        C947   1.390       .  A
C946       C1164   1.480       .  S
C947        C948   1.396       .  A
C947        H952   1.086       .  S
C948        C949   1.416       .  A
C948       C1147   1.473       .  S
C949        C950   1.411       .  A
C949       C1119   1.495       .  S
C950        H951   1.084       .  S
C953        C954   1.409       .  A
C953        C958   1.392       .  A
C953       C1063   1.471       .  S
C954        C955   1.411       .  A
C954       C1105   1.484       .  S
C955        C956   1.412       .  A
C955        H960   1.084       .  S
C956        C957   1.411       .  A
C956       C1091   1.484       .  S
C957        C958   1.391       .  A
C957       C1080   1.473       .  S
C958        H959   1.086       .  S
C961        C962   1.415       .  A
C961       C1108   1.488       .  S
C962       C1329   1.494       .  S
C963       C1411   1.405       .  A
C963        H968   1.084       .  S
C964       C1410   1.405   1_545  A
C964        C965   1.413       .  A
C964       C1318   1.489       .  S
C965       C1413   1.407   1_545  A
C965       C1094   1.484       .  S
C966       C1412   1.408       .  A
C966        H967   1.084       .  S
O969       C1419   1.269       .  A
C970       C1077   1.482       .  S
C970        O979   1.265       .  A
C970        O975   1.269       .  A
O971        C977   1.270       .  A
C972       C1035   1.487       .  S
C972       O1416   1.270       .  A
C972        O980   1.266       .  A
C973       C1049   1.482   1_565  S
C973       O1425   1.270       .  A
C973        O976   1.264   1_565  A
Cd974      O1426   2.421       .  S
Cd974      O1422   2.463       .  S
Cd974       O978   2.480       .  S
Cd974      O1423   2.399       .  S
O975      Cd1421   2.463       .  S
O976      Cd1421   2.409       .  S
C977       C1066   1.479       .  S
C977        O981   1.265       .  A
O978       C1420   1.271       .  A
O979      Cd1421   2.419       .  S
C982       C1430   1.413       .  A
C982        C987   1.394       .  A
C982       C1052   1.475       .  S
C983       C1429   1.415       .  A
C983        C984   1.410       .  A
C983       C1021   1.493       .  S
C984        C985   1.411       .  A
C984        H989   1.084       .  S
C985       C1433   1.412       .  A
C985       C1007   1.480       .  S
C986       C1432   1.414       .  A
C986        C987   1.394       .  A
C986       C1485   1.480       .  S
C987        H988   1.086       .  S
C990        C991   1.414       .  A
C990        C995   1.405   1_554  A
C990       C1136   1.481   1_554  S
C991        C992   1.406       .  A
C991       C1024   1.493       .  S
C992        H997   1.084       .  S
C993        C994   1.417       .  A
C993       C1010   1.483       .  S
C994       C1122   1.493   1_554  S
C995        H996   1.084       .  S
C998        C999   1.413       .  A
C998       C1450   1.404       .  A
C998       C1273   1.482       .  S
C999       C1447   1.407       .  A
C999       C1217   1.490       .  S
C1000      C1446   1.406       .  A
C1000      C1001   1.407   1_565  A
C1000      H1005   1.084   1_565  S
C1001      C1002   1.416       .  A
C1001      C1203   1.487       .  S
C1002      C1003   1.411   1_545  A
C1002      C1259   1.496       .  S
C1003      C1445   1.410       .  A
C1003      H1004   1.084       .  S
C1006      C1454   1.403       .  A
C1006      C1011   1.403       .  A
C1006      H1013   1.084       .  S
C1007      C1453   1.404       .  A
C1007      C1008   1.413       .  A
C1008      C1009   1.396       .  A
C1008      N1015   1.434       .  S
C1009      C1010   1.403       .  A
C1009      H1014   1.084       .  S
C1010      C1458   1.410       .  A
C1011      C1457   1.408       .  A
C1011      N1012   1.432       .  S
N1012      H1016   1.046   1_655  S
N1012      H1017   1.045       .  S
N1015      H1018   1.045       .  S
N1015      H1019   1.043       .  S
C1020      C1021   1.403       .  A
C1020      C1025   1.404       .  A
C1020      H1027   1.083       .  S
C1021      C1469   1.410       .  A
C1022      C1468   1.411       .  A
C1022      C1023   1.404       .  A
C1022      N1029   1.432       .  S
C1023      C1471   1.403       .  A
C1023      H1028   1.084       .  S
C1024      C1470   1.406       .  A
C1024      C1025   1.420       .  A
C1025      N1026   1.439       .  S
N1026      H1030   1.046       .  S
N1026      H1031   1.042       .  S
N1029      H1479   1.045       .  S
N1029      H1480   1.047       .  S
H1032      N1476   1.045       .  S
H1033      N1476   1.046       .  S
C1034      C1035   1.408       .  A
C1034      C1039   1.399       .  A
C1034      H1041   1.084       .  S
C1035      C1483   1.412       .  A
C1036      C1482   1.412       .  A
C1036      C1037   1.404       .  A
C1036      N1043   1.432       .  S
C1037      C1485   1.403       .  A
C1037      H1042   1.084       .  S
C1038      C1484   1.403       .  A
C1038      C1039   1.410       .  A
C1038      C1433   1.482       .  S
C1039      N1040   1.430       .  S
N1040      H1044   1.044       .  S
N1040      H1045   1.043       .  S
N1043      H1046   1.046       .  S
N1043      H1047   1.045       .  S
C1048      C1049   1.408       .  A
C1048      C1053   1.395       .  A
C1048      H1055   1.083       .  S
C1049      C1497   1.412   1_545  A
C1050      C1496   1.412       .  A
C1050      C1051   1.404       .  A
C1050      N1057   1.432       .  S
C1051      C1499   1.402       .  A
C1051      H1056   1.084       .  S
C1052      C1498   1.402   1_545  A
C1052      C1053   1.408       .  A
C1053      N1054   1.432       .  S
N1054      H1058   1.043       .  S
N1054      H1059   1.045       .  S
N1057      H1060   1.046       .  S
N1057      H1061   1.046       .  S
C1062      C1063   1.401       .  A
C1062      C1067   1.405       .  A
C1062      H1069   1.084       .  S
C1063      C1064   1.407       .  A
C1064      C1065   1.392       .  A
C1064      N1071   1.432       .  S
C1065      C1066   1.406       .  A
C1065      H1070   1.084       .  S
C1066      C1067   1.414       .  A
C1067      N1068   1.437       .  S
N1068      H1072   1.046       .  S
N1068      H1073   1.046       .  S
N1071      H1074   1.044       .  S
N1071      H1075   1.045       .  S
C1076      C1077   1.408       .  A
C1076      C1081   1.400       .  A
C1076      H1083   1.083       .  S
C1077      C1078   1.412       .  A
C1078      C1079   1.401       .  A
C1078      N1085   1.432       .  S
C1079      C1080   1.401       .  A
C1079      H1084   1.084       .  S
C1080      C1081   1.402       .  A
C1081      N1082   1.432       .  S
N1082      H1086   1.046       .  S
N1082      H1087   1.045       .  S
N1085      H1088   1.046       .  S
N1085      H1089   1.045       .  S
C1090      C1091   1.405       .  A
C1090      C1095   1.399       .  A
C1090      H1097   1.084       .  S
C1091      C1092   1.418       .  A
C1092      C1093   1.402       .  A
C1092      N1099   1.439       .  S
C1093      C1094   1.403       .  A
C1093      H1098   1.084       .  S
C1094      C1095   1.411       .  A
C1095      N1096   1.433       .  S
N1096      H1100   1.045       .  S
N1096      H1101   1.045       .  S
N1099      H1102   1.043       .  S
N1099      H1103   1.045       .  S
C1104      C1105   1.404       .  A
C1104      C1109   1.402       .  A
C1104      H1111   1.084       .  S
C1105      C1106   1.416       .  A
C1106      C1107   1.401       .  A
C1106      N1113   1.439       .  S
C1107      C1108   1.404       .  A
C1107      H1112   1.083       .  S
C1108      C1109   1.417       .  A
C1109      N1110   1.439       .  S
N1110      H1114   1.046       .  S
N1110      H1115   1.042   1_655  S
N1113      H1116   1.042       .  S
N1113      H1117   1.045       .  S
C1118      C1119   1.406       .  A
C1118      C1123   1.408       .  A
C1118      H1125   1.083       .  S
C1119      C1120   1.411       .  A
C1120      C1121   1.405       .  A
C1120      N1127   1.432       .  S
C1121      C1122   1.404       .  A
C1121      H1126   1.083   1_556  S
C1122      C1123   1.412       .  A
C1123      N1124   1.437       .  S
N1124      H1128   1.046       .  S
N1124      H1129   1.045       .  S
N1127      H1577   1.045       .  S
N1127      H1578   1.046   1_556  S
H1130      N1574   1.044       .  S
H1131      N1574   1.047       .  S
C1132      C1580   1.406       .  A
C1132      C1137   1.408       .  A
C1132      H1139   1.083       .  S
C1133      C1579   1.402       .  A
C1133      C1134   1.405       .  A
C1134      C1135   1.401       .  A
C1134      N1141   1.432       .  S
C1135      C1136   1.403       .  A
C1135      H1140   1.084       .  S
C1136      C1584   1.414       .  A
C1137      C1583   1.409       .  A
C1137      N1138   1.432       .  S
N1138      H1142   1.046       .  S
N1138      H1143   1.045       .  S
N1141      H1144   1.046       .  S
N1141      H1145   1.045       .  S
C1146      C1147   1.402       .  A
C1146      C1151   1.398       .  A
C1146      H1153   1.084       .  S
C1147      C1595   1.403       .  A
C1148      C1594   1.401       .  A
C1148      C1149   1.400       .  A
C1148      N1155   1.432       .  S
C1149      C1597   1.409       .  A
C1149      H1154   1.083       .  S
C1150      C1596   1.409       .  A
C1150      C1151   1.410       .  A
C1150      C1380   1.478       .  S
C1151      N1152   1.432       .  S
N1152      H1156   1.046       .  S
N1152      H1157   1.046       .  S
N1155      H1158   1.046       .  S
N1155      H1159   1.045       .  S
C1160      C1161   1.405       .  A
C1160      C1165   1.403       .  A
C1160      H1167   1.084       .  S
C1161      C1162   1.423       .  A
C1162      C1163   1.400       .  A
C1162      N1616   1.433       .  S
C1163      C1164   1.398       .  A
C1163      H1615   1.084       .  S
C1164      C1165   1.406       .  A
C1165      N1166   1.432       .  S
N1166      H1170   1.045       .  S
N1166      H1171   1.046       .  S
H1168      C1610   1.084       .  S
N1169      C1609   1.432       .  S
N1169      H1619   1.046       .  S
N1169      H1620   1.045       .  S
H1172      N1616   1.045       .  S
H1173      N1616   1.046       .  S
C1174      C1175   1.402       .  A
C1174      C1179   1.406       .  A
C1174      H1181   1.083       .  S
C1176      C1177   1.395       .  A
C1176      N1183   1.432       .  S
C1177      H1182   1.083       .  S
C1178      C1179   1.413       .  A
C1179      N1180   1.437       .  S
N1180      H1184   1.046       .  S
N1180      H1185   1.046       .  S
N1183      H1186   1.043       .  S
N1183      H1187   1.045       .  S
C1188      C1189   1.399       .  A
C1188      C1193   1.400       .  A
C1188      H1195   1.083       .  S
C1190      C1191   1.403       .  A
C1190      N1197   1.432       .  S
C1191      H1196   1.084       .  S
C1192      C1193   1.415       .  A
C1193      N1194   1.432       .  S
N1194      H1198   1.046       .  S
N1194      H1199   1.046       .  S
N1197      H1200   1.046       .  S
N1197      H1201   1.045       .  S
C1202      C1203   1.405       .  A
C1202      C1207   1.411       .  A
C1202      H1209   1.083       .  S
C1204      C1205   1.405       .  A
C1204      N1211   1.431       .  S
C1205      H1210   1.084       .  S
C1206      C1207   1.411       .  A
C1207      N1208   1.437       .  S
N1208      H1212   1.045       .  S
N1208      H1213   1.046       .  S
N1211      H1214   1.046       .  S
N1211      H1215   1.045       .  S
C1216      C1221   1.403       .  A
C1216      H1223   1.084       .  S
C1217      C1218   1.418       .  A
C1218      C1219   1.404       .  A
C1218      N1225   1.438       .  S
C1219      C1220   1.402       .  A
C1219      H1224   1.084       .  S
C1221      N1222   1.438       .  S
N1222      H1226   1.046       .  S
N1222      H1227   1.043       .  S
N1225      H1228   1.043       .  S
N1225      H1229   1.046       .  S
C1230      C1231   1.402       .  A
C1230      C1235   1.405       .  A
C1230      H1237   1.084       .  S
C1232      C1233   1.400       .  A
C1232      N1239   1.432       .  S
C1233      C1234   1.409       .  A
C1233      H1238   1.084       .  S
C1235      N1236   1.438       .  S
N1236      H1240   1.046       .  S
N1236      H1241   1.045       .  S
N1239      H1242   1.046       .  S
N1239      H1243   1.045       .  S
C1244      C1245   1.398       .  A
C1244      C1249   1.402       .  A
C1244      H1251   1.084       .  S
C1246      C1247   1.401       .  A
C1246      N1253   1.439       .  S
C1247      H1252   1.084       .  S
C1248      C1249   1.419       .  A
C1249      N1250   1.438       .  S
N1250      H1254   1.045       .  S
N1250      H1255   1.046       .  S
N1253      H1256   1.043       .  S
N1253      H1257   1.045       .  S
C1258      C1259   1.406       .  A
C1258      C1263   1.404       .  A
C1258      H1265   1.083       .  S
C1260      C1261   1.406       .  A
C1260      N1267   1.439       .  S
C1261      H1266   1.084       .  S
C1262      C1263   1.405       .  A
C1263      N1264   1.432       .  S
N1264      H1268   1.046       .  S
N1264      H1269   1.045       .  S
N1267      H1270   1.042   1_545  S
N1267      H1271   1.045       .  S
C1272      C1273   1.401       .  A
C1272      C1277   1.401       .  A
C1272      H1279   1.084       .  S
C1274      C1275   1.401       .  A
C1274      N1281   1.438       .  S
C1275      H1280   1.084       .  S
C1276      C1277   1.417       .  A
C1277      N1278   1.438       .  S
N1278      H1282   1.045       .  S
N1278      H1283   1.043       .  S
N1281      H1284   1.043       .  S
N1281      H1285   1.045       .  S
C1286      C1287   1.397       .  A
C1286      C1291   1.400       .  A
C1286      H1293   1.084       .  S
C1287      C1288   1.416       .  A
C1288      C1289   1.401       .  A
C1288      N1295   1.439       .  S
C1289      C1290   1.405       .  A
C1289      H1294   1.084       .  S
C1290      C1291   1.416       .  A
C1291      N1292   1.432       .  S
N1292      H1296   1.045       .  S
N1292      H1297   1.046       .  S
N1295      H1298   1.044       .  S
N1295      H1299   1.045       .  S
C1300      C1301   1.395       .  A
C1300      C1305   1.398       .  A
C1300      H1307   1.084       .  S
C1301      C1302   1.410       .  A
C1302      C1303   1.404       .  A
C1302      N1309   1.438       .  S
C1303      C1304   1.404       .  A
C1303      H1308   1.083       .  S
C1304      C1305   1.416       .  A
C1305      N1306   1.433       .  S
N1306      H1310   1.045       .  S
N1306      H1311   1.046       .  S
N1309      H1312   1.045       .  S
N1309      H1313   1.046       .  S
C1314      C1315   1.405       .  A
C1314      C1319   1.406       .  A
C1314      H1321   1.084       .  S
C1315      C1316   1.418       .  A
C1316      C1317   1.403       .  A
C1316      N1323   1.439       .  S
C1317      C1318   1.403       .  A
C1317      H1322   1.082       .  S
C1318      C1319   1.406       .  A
C1319      N1320   1.431       .  S
N1320      H1324   1.045       .  S
N1320      H1325   1.046       .  S
N1323      H1326   1.043       .  S
N1323      H1327   1.045       .  S
C1328      C1329   1.406       .  A
C1328      C1333   1.403       .  A
C1328      H1335   1.084       .  S
C1329      C1330   1.414       .  A
C1330      C1331   1.402       .  A
C1330      N1337   1.432       .  S
C1331      C1332   1.405       .  A
C1331      H1336   1.083       .  S
C1332      C1333   1.415       .  A
C1333      N1334   1.432       .  S
N1334      H1338   1.044       .  S
N1334      H1339   1.045       .  S
N1337      H1340   1.045       .  S
N1337      H1341   1.044       .  S
C1342      C1343   1.414       .  A
C1342      C1347   1.412       .  A
C1342      C1779   1.485       .  S
C1343      C1344   1.394       .  A
C1343      C1748   1.478       .  S
C1344      C1345   1.390       .  A
C1344      H1349   1.086       .  S
C1345      C1346   1.406       .  A
C1345      C1734   1.468       .  S
C1346      C1347   1.409       .  A
C1346      C1762   1.482       .  S
C1347      H1348   1.084       .  S
C1350      C1351   1.412       .  A
C1350      C1355   1.411       .  A
C1350      C1723   1.488       .  S
C1351      C1352   1.398       .  A
C1351      C1678   1.477       .  S
C1352      C1353   1.395       .  A
C1353      C1354   1.414       .  A
C1353      C1692   1.484       .  S
C1354      C1355   1.414       .  A
C1354      C1709   1.487       .  S
C1355      H1356   1.084       .  S
C1359      C1751   1.478       .  S
C1359      O1368   1.265       .  A
C1359      O1364   1.270       .  A
O1360      C1366   1.269       .  A
C1361      C1695   1.487       .  S
C1361      O1369   1.265       .  A
C1362      C1681   1.482   1_455  S
C1362      O1365   1.265   1_455  A
Cd1363     O1367   2.444   1_545  S
C1366      C1737   1.479       .  S
C1366      O1370   1.265       .  A
C1371      C1372   1.412       .  A
C1371      C1376   1.393       .  A
C1371      C1636   1.476       .  S
C1372      C1373   1.414       .  A
C1372      C1667   1.489       .  S
C1373      C1374   1.414       .  A
C1373      H1378   1.084       .  S
C1374      C1375   1.411       .  A
C1374      C1653   1.486       .  S
C1375      C1376   1.390       .  A
C1375      C1622   1.474       .  S
C1376      H1377   1.086       .  S
C1380      O1389   1.266       .  A
C1382      C1639   1.480       .  S
C1382      O1390   1.265       .  A
C1383      O1386   1.266   1_455  A
Cd1384     O1391   2.407   1_545  S
Cd1384     O1390   2.426   1_545  S
C1387      C1608   1.484       .  S
C1387      O1391   1.263   1_545  A
C1392      C1393   1.411       .  A
C1392      C1397   1.412       .  A
C1392      C1580   1.490       .  S
C1393      C1394   1.394       .  A
C1393      C1611   1.471       .  S
C1394      C1395   1.393       .  A
C1394      H1399   1.086       .  S
C1395      C1396   1.412       .  A
C1395      C1594   1.476       .  S
C1396      C1397   1.413       .  A
C1396      C1566   1.488       .  S
C1397      H1398   1.084       .  S
C1400      C1401   1.409       .  A
C1400      C1405   1.392       .  A
C1400      C1510   1.478       .  S
C1401      C1402   1.412       .  A
C1401      C1552   1.483       .  S
C1402      C1403   1.413       .  A
C1402      H1407   1.084       .  S
C1403      C1404   1.415       .  A
C1403      C1538   1.494       .  S
C1404      C1405   1.396       .  A
C1404      C1527   1.474       .  S
C1405      H1406   1.086       .  S
C1408      C1409   1.414       .  A
C1408      C1555   1.487       .  S
C1409      C1776   1.487       .  S
C1410      H1415   1.084       .  S
C1411      C1412   1.414       .  A
C1411      C1765   1.480       .  S
C1412      C1541   1.494       .  S
C1413      H1414   1.084       .  S
C1417      C1524   1.484       .  S
C1417      O1426   1.265       .  A
C1417      O1422   1.271       .  A
O1418      C1424   1.270       .  A
C1419      C1482   1.485       .  S
C1419      O1427   1.265   1_545  A
C1420      C1496   1.483       .  S
C1420      O1423   1.265       .  A
Cd1421     O1425   2.480   1_545  S
C1424      C1513   1.482       .  S
C1424      O1428   1.266       .  A
C1429      C1434   1.396       .  A
C1429      C1499   1.473       .  S
C1430      C1431   1.409       .  A
C1430      C1468   1.487       .  S
C1431      C1432   1.410       .  A
C1431      H1436   1.084       .  S
C1432      C1454   1.482       .  S
C1433      C1434   1.393       .  A
C1434      H1435   1.086       .  S
C1437      C1438   1.415       .  A
C1437      C1442   1.404   1_554  A
C1437      C1583   1.492   1_554  S
C1438      C1439   1.406       .  A
C1438      C1471   1.483       .  S
C1439      H1444   1.084       .  S
C1440      C1441   1.417       .  A
C1440      C1457   1.486       .  S
C1441      C1569   1.488   1_554  S
C1442      H1443   1.084       .  S
C1445      C1446   1.414       .  A
C1445      C1720   1.491       .  S
C1446      C1664   1.490       .  S
C1447      C1448   1.408       .  A
C1447      H1452   1.084       .  S
C1448      C1449   1.416       .  A
C1448      C1650   1.487       .  S
C1449      C1450   1.405       .  A
C1449      C1706   1.490       .  S
C1450      H1451   1.084       .  S
C1453      C1458   1.406       .  A
C1453      H1460   1.083       .  S
C1454      C1455   1.415   1_545  A
C1455      C1456   1.397       .  A
C1455      N1462   1.434       .  S
C1456      C1457   1.404   1_565  A
C1456      H1461   1.084       .  S
C1458      N1459   1.438       .  S
N1459      H1463   1.044       .  S
N1459      H1464   1.047       .  S
N1462      H1465   1.044       .  S
N1462      H1466   1.045       .  S
C1467      C1468   1.404   1_565  A
C1467      C1472   1.401       .  A
C1467      H1474   1.083       .  S
C1469      C1470   1.407       .  A
C1469      N1476   1.432       .  S
C1470      H1475   1.084       .  S
C1471      C1472   1.407   1_545  A
C1472      N1473   1.432       .  S
N1473      H1477   1.045       .  S
N1473      H1478   1.046       .  S
C1481      C1482   1.407   1_565  A
C1481      C1486   1.396       .  A
C1481      H1488   1.084       .  S
C1483      C1484   1.404       .  A
C1483      N1490   1.432       .  S
C1484      H1489   1.084       .  S
C1485      C1486   1.410   1_545  A
C1486      N1487   1.431       .  S
N1487      H1491   1.042       .  S
N1487      H1492   1.045       .  S
N1490      H1493   1.046       .  S
N1490      H1494   1.045       .  S
C1495      C1496   1.408       .  A
C1495      C1500   1.394       .  A
C1495      H1502   1.083       .  S
C1497      C1498   1.402       .  A
C1497      N1504   1.432       .  S
C1498      H1503   1.084       .  S
C1499      C1500   1.407       .  A
C1500      N1501   1.433       .  S
N1501      H1505   1.044       .  S
N1501      H1506   1.045       .  S
N1504      H1507   1.046       .  S
N1504      H1508   1.046       .  S
C1509      C1510   1.402       .  A
C1509      C1514   1.407       .  A
C1509      H1516   1.084       .  S
C1510      C1511   1.414       .  A
C1511      C1512   1.399       .  A
C1511      N1518   1.439       .  S
C1512      C1513   1.405       .  A
C1512      H1517   1.084       .  S
C1513      C1514   1.414       .  A
C1514      N1515   1.438       .  S
N1515      H1519   1.046       .  S
N1515      H1520   1.046       .  S
N1518      H1521   1.043       .  S
N1518      H1522   1.046       .  S
C1523      C1524   1.410       .  A
C1523      C1528   1.402       .  A
C1523      H1530   1.083       .  S
C1524      C1525   1.412       .  A
C1525      C1526   1.400       .  A
C1525      N1532   1.432       .  S
C1526      C1527   1.401       .  A
C1526      H1531   1.084       .  S
C1527      C1528   1.402       .  A
C1528      N1529   1.432       .  S
N1529      H1533   1.045       .  S
N1529      H1534   1.046       .  S
N1532      H1535   1.045       .  S
N1532      H1536   1.046       .  S
C1537      C1538   1.405       .  A
C1537      C1542   1.404       .  A
C1537      H1544   1.084       .  S
C1538      C1539   1.420       .  A
C1539      C1540   1.407       .  A
C1539      N1546   1.439       .  S
C1540      C1541   1.405       .  A
C1540      H1545   1.083       .  S
C1541      C1542   1.417       .  A
C1542      N1543   1.439       .  S
N1543      H1547   1.046       .  S
N1543      H1548   1.042       .  S
N1546      H1549   1.042       .  S
N1546      H1550   1.045       .  S
C1551      C1552   1.402       .  A
C1551      C1556   1.402       .  A
C1551      H1558   1.084       .  S
C1552      C1553   1.416       .  A
C1553      C1554   1.402       .  A
C1553      N1560   1.438       .  S
C1554      C1555   1.404       .  A
C1554      H1559   1.084       .  S
C1555      C1556   1.417       .  A
C1556      N1557   1.439       .  S
N1557      H1561   1.045       .  S
N1557      H1562   1.043   1_655  S
N1560      H1563   1.043       .  S
N1560      H1564   1.046       .  S
C1565      C1566   1.405   1_565  A
C1565      C1570   1.404       .  A
C1565      H1572   1.083       .  S
C1566      C1567   1.412       .  A
C1567      C1568   1.406       .  A
C1567      N1574   1.437       .  S
C1568      C1569   1.404       .  A
C1568      H1573   1.084   1_556  S
C1569      C1570   1.407   1_545  A
C1570      N1571   1.432       .  S
N1571      H1575   1.046       .  S
N1571      H1576   1.045       .  S
C1579      C1584   1.399       .  A
C1579      H1586   1.084       .  S
C1580      C1581   1.408   1_545  A
C1581      C1582   1.405       .  A
C1581      N1588   1.432       .  S
C1582      C1583   1.404   1_565  A
C1582      H1587   1.084   1_556  S
C1584      N1585   1.432       .  S
N1585      H1589   1.046       .  S
N1585      H1590   1.044       .  S
N1588      H1591   1.046   1_556  S
N1588      H1592   1.045       .  S
C1593      C1594   1.401   1_565  A
C1593      C1598   1.406       .  A
C1593      H1600   1.084       .  S
C1595      C1596   1.400       .  A
C1595      N1602   1.432       .  S
C1596      H1601   1.083       .  S
C1597      C1598   1.416   1_545  A
C1598      N1599   1.437       .  S
N1599      H1603   1.046       .  S
N1599      H1604   1.045       .  S
N1602      H1605   1.046       .  S
N1602      H1606   1.045       .  S
C1607      C1608   1.406       .  A
C1607      C1612   1.400       .  A
C1607      H1614   1.083       .  S
C1608      C1609   1.424   1_545  A
C1609      C1610   1.397       .  A
C1610      C1611   1.396   1_565  A
C1611      C1612   1.404       .  A
C1612      N1613   1.432       .  S
N1613      H1617   1.046       .  S
N1613      H1618   1.046       .  S
C1621      C1622   1.402       .  A
C1621      C1626   1.405       .  A
C1621      H1628   1.084       .  S
C1623      C1624   1.393       .  A
C1623      N1630   1.432       .  S
C1624      H1629   1.084       .  S
C1625      C1626   1.414       .  A
C1626      N1627   1.437       .  S
N1627      H1631   1.046       .  S
N1627      H1632   1.046       .  S
N1630      H1633   1.042       .  S
N1630      H1634   1.045       .  S
C1635      C1636   1.399       .  A
C1635      C1640   1.403       .  A
C1635      H1642   1.084       .  S
C1637      C1638   1.402       .  A
C1637      N1644   1.432       .  S
C1638      H1643   1.083       .  S
C1639      C1640   1.417       .  A
C1640      N1641   1.432       .  S
N1641      H1645   1.046       .  S
N1641      H1646   1.046       .  S
N1644      H1647   1.045       .  S
N1644      H1648   1.045       .  S
C1649      C1650   1.403       .  A
C1649      C1654   1.408       .  A
C1649      H1656   1.084       .  S
C1651      C1652   1.406       .  A
C1651      N1658   1.431       .  S
C1652      H1657   1.084       .  S
C1653      C1654   1.411       .  A
C1654      N1655   1.437       .  S
N1655      H1659   1.045       .  S
N1655      H1660   1.046       .  S
N1658      H1661   1.046       .  S
N1658      H1662   1.045       .  S
C1663      C1668   1.403       .  A
C1663      H1670   1.084       .  S
C1664      C1665   1.418       .  A
C1665      C1666   1.404       .  A
C1665      N1672   1.438       .  S
C1666      C1667   1.403       .  A
C1666      H1671   1.084       .  S
C1668      N1669   1.438       .  S
N1669      H1673   1.045       .  S
N1669      H1674   1.043       .  S
N1672      H1675   1.044       .  S
N1672      H1676   1.045       .  S
C1677      C1678   1.401       .  A
C1677      C1682   1.397       .  A
C1677      H1684   1.084       .  S
C1679      C1680   1.396       .  A
C1679      N1686   1.433       .  S
C1680      C1681   1.408       .  A
C1680      H1685   1.083       .  S
C1682      N1683   1.432       .  S
N1683      H1687   1.046       .  S
N1683      H1688   1.046       .  S
N1686      H1689   1.045       .  S
N1686      H1690   1.046       .  S
C1691      C1692   1.399       .  A
C1691      C1696   1.401       .  A
C1691      H1698   1.083       .  S
C1693      C1694   1.400       .  A
C1693      N1700   1.439       .  S
C1694      H1699   1.083       .  S
C1695      C1696   1.416       .  A
C1696      N1697   1.432       .  S
N1697      H1701   1.046       .  S
N1697      H1702   1.046       .  S
N1700      H1703   1.043       .  S
N1700      H1704   1.046       .  S
C1705      C1706   1.405       .  A
C1705      C1710   1.406       .  A
C1705      H1712   1.084       .  S
C1707      C1708   1.404       .  A
C1707      N1714   1.439       .  S
C1708      H1713   1.084       .  S
C1709      C1710   1.409       .  A
C1710      N1711   1.438       .  S
N1711      H1715   1.045       .  S
N1711      H1716   1.046       .  S
N1714      H1717   1.042       .  S
N1714      H1718   1.045       .  S
C1719      C1720   1.403       .  A
C1719      C1724   1.404       .  A
C1719      H1726   1.084       .  S
C1721      C1722   1.406       .  A
C1721      N1728   1.438       .  S
C1722      H1727   1.084       .  S
C1723      C1724   1.416       .  A
C1724      N1725   1.438       .  S
N1725      H1729   1.045       .  S
N1725      H1730   1.044       .  S
N1728      H1731   1.043       .  S
N1728      H1732   1.046       .  S
C1733      C1734   1.396       .  A
C1733      C1738   1.396       .  A
C1733      H1740   1.084       .  S
C1734      C1735   1.413       .  A
C1735      C1736   1.400       .  A
C1735      N1742   1.438       .  S
C1736      C1737   1.406       .  A
C1736      H1741   1.084       .  S
C1737      C1738   1.413       .  A
C1738      N1739   1.432       .  S
N1739      H1743   1.046       .  S
N1739      H1744   1.046       .  S
N1742      H1745   1.043       .  S
N1742      H1746   1.046       .  S
C1747      C1748   1.398       .  A
C1747      C1752   1.401       .  A
C1747      H1754   1.084       .  S
C1748      C1749   1.411       .  A
C1749      C1750   1.403       .  A
C1749      N1756   1.438       .  S
C1750      C1751   1.402       .  A
C1750      H1755   1.083       .  S
C1751      C1752   1.414       .  A
C1752      N1753   1.433       .  S
N1753      H1757   1.046       .  S
N1753      H1758   1.046       .  S
N1756      H1759   1.045       .  S
N1756      H1760   1.046       .  S
C1761      C1762   1.403       .  A
C1761      C1766   1.402       .  A
C1761      H1768   1.083       .  S
C1762      C1763   1.418       .  A
C1763      C1764   1.403       .  A
C1763      N1770   1.439       .  S
C1764      C1765   1.401       .  A
C1764      H1769   1.084       .  S
C1765      C1766   1.404       .  A
C1766      N1767   1.432       .  S
N1767      H1771   1.046       .  S
N1767      H1772   1.045       .  S
N1770      H1773   1.043       .  S
N1770      H1774   1.046       .  S
C1775      C1776   1.403       .  A
C1775      C1780   1.398       .  A
C1775      H1782   1.083       .  S
C1776      C1777   1.414       .  A
C1777      C1778   1.402       .  A
C1777      N1784   1.432       .  S
C1778      C1779   1.405       .  A
C1778      H1783   1.084       .  S
C1779      C1780   1.413       .  A
C1780      N1781   1.432       .  S
N1781      H1785   1.045       .  S
N1781      H1786   1.045       .  S
N1784      H1787   1.045       .  S
N1784      H1788   1.044       .  S
