geometry optimzed in LAMMPS
_audit_creation_date              2020-11-30 
_audit_creation_method            'lammps2cif' 
_symmetry_space_group_name_H-M    'P1' 
_symmetry_Int_Tables_number       1 
_symmetry_cell_setting            triclinic 
loop_ 
_symmetry_equiv_pos_as_xyz 
  x,y,z 
_cell_length_a                    43.53312666 
_cell_length_b                    43.53984787441107 
_cell_length_c                    32.580825516127405 
_cell_angle_alpha                 90.00673858599575 
_cell_angle_beta                  89.999116756411 
_cell_angle_gamma                 119.9765076123028 
loop_ 
_atom_site_label 
_atom_site_type_symbol 
_atom_site_fract_x 
_atom_site_fract_y 
_atom_site_fract_z 
_atom_site_charge 
O1          O  0.47076977  0.44127811  0.33416723    -0.75600
O2          O  0.05874571  0.02918585  0.33255409    -0.75600
O3          O  0.01553096  0.48598166  0.39211937    -0.75700
O4          O  0.01398733  0.48445030  0.27455566    -0.75700
O5          O  0.48599845  0.01559328  0.27456961    -0.72000
O6          O  0.48445090  0.01403420  0.39212782    -0.75600
O7          O  0.02921792  0.05875042  0.33419846    -0.75600
O8          O  0.44123986  0.47084082  0.33254553    -0.75700
Ni9        Ni  0.01581115  0.48417095  0.33334268     1.25400
Ni10       Ni  0.48417431  0.01585763  0.33335504     1.25400
C11         C  0.44144955  0.44151268  0.33339251     0.86600
C12         C  0.05853769  0.05851439  0.33341768     0.86500
C13         C  0.49998852  0.50000490  0.41149334     0.86600
C14         C  0.99999375  0.50002508  0.25519347     0.86700
O15         O  0.47063290  0.19126865  0.33403649    -0.75600
O16         O  0.05874211  0.27904537  0.33250837    -0.75600
O17         O  0.01537278  0.23581021  0.39203693    -0.75700
O18         O  0.01392421  0.23439579  0.27449226    -0.75700
O19         O  0.48601823  0.26562767  0.27452120    -0.75600
O20         O  0.48461205  0.26417227  0.39206087    -0.75600
O21         O  0.02933440  0.30873076  0.33407531    -0.75600
O22         O  0.44122287  0.22095253  0.33252618    -0.75700
Ni23       Ni  0.01572149  0.23407850  0.33326258     1.25400
Ni24       Ni  0.48424371  0.26592232  0.33329262     1.25400
C25         C  0.44135386  0.19158177  0.33331148     0.86600
C26         C  0.05861251  0.30841597  0.33332407     0.86500
C27         C  0.99999366  0.24998823  0.41144904     0.86600
C28         C  0.99996717  0.25001392  0.25515755     0.86700
O29         O  0.26417702  0.48461840  0.27457669    -0.75600
O30         O  0.26554901  0.48600100  0.39212802    -0.75600
O31         O  0.22094173  0.44123683  0.33407780    -0.75700
O32         O  0.30871760  0.02934988  0.33267908    -0.75700
O33         O  0.27902416  0.05875405  0.33405848    -0.75600
O34         O  0.19124746  0.47064012  0.33269610    -0.75600
O35         O  0.23442878  0.01401875  0.39212582    -0.75600
O36         O  0.23576803  0.01534080  0.27457731    -0.75700
Ni37       Ni  0.26590224  0.48425309  0.33336023     1.25400
Ni38       Ni  0.23406177  0.01573719  0.33335878     1.25400
C39         C  0.24996878  0.99997491  0.25518630     0.86600
C40         C  0.24998952  0.00001266  0.41148358     0.86500
C41         C  0.19156633  0.44136675  0.33342507     0.86600
C42         C  0.30839978  0.05862399  0.33340388     0.86700
O43         O  0.26400402  0.23443151  0.27455316    -0.75600
O44         O  0.26557523  0.23603316  0.39210430    -0.75600
O45         O  0.22083038  0.19126193  0.33417461    -0.75700
O46         O  0.30874184  0.27923734  0.33251336    -0.75700
O47         O  0.27916644  0.30875589  0.33410442    -0.75600
O48         O  0.19125575  0.22078061  0.33256365    -0.75600
O49         O  0.23446758  0.26405729  0.39209469    -0.75600
O50         O  0.23594994  0.26551501  0.27454602    -0.75700
Ni51       Ni  0.26584382  0.23419083  0.33333188     1.25400
Ni52       Ni  0.23415388  0.26582663  0.33332159     1.25400
C53         C  0.24997032  0.24996388  0.25518886     0.86600
C54         C  0.25003049  0.25005849  0.41146935     0.86500
C55         C  0.19149543  0.19146720  0.33340881     0.86600
C56         C  0.30850137  0.30855105  0.33333855     0.86700
O57         O  0.02913581  0.47041564  0.99912972    -0.75600
O58         O  0.44125292  0.47055421  0.00067408    -0.75600
O59         O  0.48438015  0.47044225  0.94116631    -0.75700
O60         O  0.48592921  0.47048080  0.05868302    -0.75700
O61         O  0.01404302  0.02959091  0.05867901    -0.75600
O62         O  0.01559913  0.02956844  0.94115694    -0.75600
O63         O  0.47083854  0.02962800  0.99910599    -0.75600
O64         O  0.05872195  0.02948967  0.00069021    -0.75700
Ni65       Ni  0.48412330  0.46836663  0.99991556     1.25400
Ni66       Ni  0.01585135  0.03167670  0.99990853     1.25400
C67         C  0.05846784  0.49993348  0.99990294     0.86600
C68         C  0.44150683  0.50010999  0.99988040     0.86500
C69         C  0.49999418  0.50000012  0.92184137     0.86600
C70         C  0.49998715  0.50003880  0.07805174     0.86700
O71         O  0.05866514  0.27913086  0.00061278    -0.75600
O72         O  0.47113071  0.27996560  0.99928014    -0.75600
O73         O  0.01427556  0.27957657  0.05871341    -0.75700
O74         O  0.01556343  0.27955447  0.94118553    -0.75700
O75         O  0.48442188  0.22045682  0.94117976    -0.75600
O76         O  0.48569862  0.22045943  0.05870822    -0.75600
O77         O  0.44131778  0.22089165  0.00060015    -0.75600
O78         O  0.02885148  0.22005699  0.99928248    -0.75700
Ni79       Ni  0.01597829  0.28166055  0.99994871     1.25400
Ni80       Ni  0.48400360  0.21836256  0.99994374     1.25400
C81         C  0.05825850  0.24949457  0.99993713     0.86600
C82         C  0.44172435  0.25052762  0.99993314     0.86500
C83         C  0.99998089  0.25001891  0.07808574     0.86600
C84         C  0.49999439  0.25000485  0.92180697     0.86700
O85         O  0.22071350  0.02949124  0.99900293    -0.75600
O86         O  0.30871925  0.02960523  0.00090490    -0.75600
O87         O  0.26559251  0.02958950  0.94119350    -0.75700
O88         O  0.26382881  0.02955051  0.05872368    -0.75700
O89         O  0.23613143  0.47044255  0.05869091    -0.75600
O90         O  0.23438468  0.47048337  0.94116248    -0.75600
O91         O  0.27925734  0.47054215  0.99895268    -0.75600
O92         O  0.19125035  0.47042683  0.00088229    -0.75700
Ni93       Ni  0.26576763  0.03166734  0.99995682     1.25400
Ni94       Ni  0.23420246  0.46836545  0.99992052     1.25400
C95         C  0.19142341  0.99994293  0.99994625     0.86600
C96         C  0.30854697  0.00009008  0.99993125     0.86500
C97         C  0.24998612  0.00004202  0.92181941     0.86600
C98         C  0.24997763  0.99999067  0.07805452     0.86700
O99         O  0.22044757  0.27914152  0.99899810    -0.75600
O100        O  0.30878948  0.27993587  0.00082278    -0.75600
O101        O  0.26553485  0.27961047  0.94114058    -0.75700
O102        O  0.26378138  0.27952472  0.05869259    -0.75700
O103        O  0.23617111  0.22043631  0.05865887    -0.75600
O104        O  0.23446463  0.22043238  0.94111051    -0.75600
O105        O  0.27953312  0.22086763  0.99897013    -0.75600
O106        O  0.19118842  0.22007215  0.00078306    -0.75700
Ni107      Ni  0.26566937  0.28166402  0.99991694     1.25400
Ni108      Ni  0.23430871  0.21834153  0.99988140     1.25400
C109        C  0.19122260  0.24951433  0.99987521     0.86600
C110        C  0.30875707  0.25049542  0.99988509     0.86500
C111        C  0.25000039  0.25002624  0.92190029     0.86600
C112        C  0.24997239  0.24997391  0.07805420     0.86700
O113        O  0.02952146  0.47078147  0.66748227    -0.75600
O114        O  0.02954476  0.05874424  0.66595889    -0.75600
O115        O  0.02955836  0.01544391  0.72546148    -0.75700
O116        O  0.02954517  0.01403419  0.60794939    -0.75700
O117        O  0.47042543  0.48601588  0.60795570    -0.75600
O118        O  0.47045153  0.48456560  0.72546890    -0.75600
O119        O  0.47046678  0.02925140  0.66754034    -0.75600
O120        O  0.47044287  0.44128922  0.66591576    -0.75700
Ni121      Ni  0.03164743  0.01580790  0.66671086     1.25400
Ni122      Ni  0.46834146  0.48422486  0.66671892     1.25400
C123        C  0.49997849  0.44148286  0.66670410     0.86600
C124        C  0.50000913  0.05855051  0.66676505     0.86500
C125        C  0.50000810  0.99999692  0.74485049     0.86600
C126        C  0.49998316  0.00002394  0.58859181     0.86700
O127        O  0.02950928  0.22077807  0.66750207    -0.75600
O128        O  0.02955889  0.30875139  0.66579624    -0.75600
O129        O  0.02956044  0.26560361  0.72540011    -0.75700
O130        O  0.02955805  0.26391182  0.60787230    -0.75700
O131        O  0.47042591  0.23609057  0.60787137    -0.75600
O132        O  0.47043452  0.23446015  0.72539992    -0.75600
O133        O  0.47047833  0.27925691  0.66747475    -0.75600
O134        O  0.47042852  0.19128298  0.66582305    -0.75700
Ni135      Ni  0.03165489  0.26581653  0.66664000     1.25400
Ni136      Ni  0.46833359  0.23421830  0.66663969     1.25400
C137        C  0.49996391  0.19147947  0.66668453     0.86600
C138        C  0.50002334  0.30855511  0.66664686     0.86500
C139        C  0.49999842  0.25003115  0.74474566     0.86600
C140        C  0.49999138  0.24999564  0.58854333     0.86700
O141        O  0.21968630  0.02856209  0.66746037    -0.75600
O142        O  0.22120436  0.44137810  0.66593458    -0.75600
O143        O  0.22043509  0.48422676  0.72541734    -0.75700
O144        O  0.22041190  0.48565183  0.60790690    -0.75700
O145        O  0.27954655  0.01433533  0.60790962    -0.75600
O146        O  0.27953203  0.01579040  0.72542133    -0.75600
O147        O  0.28028061  0.47143950  0.66746484    -0.75600
O148        O  0.27876264  0.05861922  0.66593403    -0.75700
Ni149      Ni  0.21832882  0.48386976  0.66667077     1.25400
Ni150      Ni  0.28163561  0.01612935  0.66667346     1.25400
C151        C  0.24904021  0.05804840  0.66675766     0.86600
C152        C  0.25092878  0.44195179  0.66676194     0.86500
C153        C  0.24998306  0.00001597  0.74477866     0.86600
C154        C  0.24997900  0.99999538  0.58854384     0.86700
O155        O  0.21967376  0.19120867  0.66647809    -0.75600
O156        O  0.22125330  0.27994064  0.66704994    -0.75600
O157        O  0.22046563  0.23601396  0.60796050    -0.75700
O158        O  0.22044975  0.23545065  0.72554206    -0.75700
O159        O  0.27953883  0.26454562  0.72555756    -0.75600
O160        O  0.27958383  0.26404782  0.60798260    -0.75600
O161        O  0.28033785  0.30881468  0.66653181    -0.75600
O162        O  0.27875793  0.22007813  0.66703498    -0.75700
Ni163      Ni  0.21836158  0.23461352  0.66675135     1.25400
Ni164      Ni  0.28165345  0.26541000  0.66677248     1.25400
C165        C  0.24901063  0.19099070  0.66678930     0.86600
C166        C  0.25099849  0.30902904  0.66682907     0.86500
C167        C  0.25003021  0.25004212  0.58860271     0.86600
C168        C  0.24999178  0.24999802  0.74499825     0.86700
C169        C  0.21917421  0.37562637  0.66676203    -0.14500
C170        C  0.25122366  0.40808631  0.66691458     0.07700
C171        C  0.28336544  0.40776002  0.66718974    -0.14500
C172        C  0.28339141  0.37563266  0.66717523    -0.14500
C173        C  0.25127724  0.34318143  0.66692577     0.07700
C174        C  0.21919982  0.34358158  0.66677421    -0.14500
H175        H  0.19395038  0.37491312  0.66661155     0.11600
H176        H  0.30852330  0.43231996  0.66735253     0.11600
H177        H  0.30856291  0.37623582  0.66734486     0.11600
H178        H  0.19398894  0.31908017  0.66661566     0.11600
C179        C  0.28080888  0.12437285  0.66670632    -0.14500
C180        C  0.24875403  0.09191771  0.66690165     0.07700
C181        C  0.21661797  0.09225390  0.66720469    -0.14500
C182        C  0.21660296  0.12438670  0.66717496    -0.14500
C183        C  0.24872254  0.15683340  0.66688348     0.07700
C184        C  0.28079418  0.15642298  0.66670356    -0.14500
H185        H  0.30602902  0.12507847  0.66653221     0.11600
H186        H  0.19145669  0.06769793  0.66740198     0.11600
H187        H  0.19143522  0.12379123  0.66737048     0.11600
H188        H  0.30600848  0.18092021  0.66651232     0.11600
C189        C  0.46793762  0.37503915  0.66484290    -0.14500
C190        C  0.49998476  0.40747329  0.66671187     0.07700
C191        C  0.03205048  0.40708586  0.66858087    -0.14500
C192        C  0.03206797  0.37499495  0.66854087    -0.14500
C193        C  0.50001987  0.34256303  0.66667713     0.07700
C194        C  0.46795397  0.34294830  0.66484823    -0.14500
H195        H  0.44277560  0.37440272  0.66333487     0.11600
H196        H  0.05720113  0.43159882  0.67010169     0.11600
H197        H  0.05722734  0.37562587  0.67005941     0.11600
H198        H  0.44280552  0.31843315  0.66331930     0.11600
C199        C  0.03204965  0.12499486  0.66493227    -0.14500
C200        C  0.50000224  0.09256053  0.66678595     0.07700
C201        C  0.46793579  0.09294834  0.66863617    -0.14500
C202        C  0.46791816  0.12503951  0.66858930    -0.14500
C203        C  0.49996684  0.15747129  0.66673612     0.07700
C204        C  0.03203325  0.15708565  0.66493088    -0.14500
H205        H  0.05721229  0.12563147  0.66343767     0.11600
H206        H  0.44278458  0.06843540  0.67014223     0.11600
H207        H  0.44275822  0.12440884  0.67008937     0.11600
H208        H  0.05718213  0.18160049  0.66341151     0.11600
C209        C  0.21805417  0.23689463  0.85532698    -0.14500
C210        C  0.24999921  0.25003340  0.87692177     0.07700
C211        C  0.28193985  0.26315917  0.85532585    -0.14500
C212        C  0.28194142  0.26292838  0.81241213    -0.14500
C213        C  0.24999074  0.25000488  0.79046000     0.07700
C214        C  0.21804399  0.23709731  0.81241231    -0.14500
H215        H  0.19320593  0.22687702  0.87170481     0.11600
H216        H  0.30679057  0.27318165  0.87170179     0.11600
H217        H  0.30695653  0.27286282  0.79645963     0.11600
H218        H  0.19302674  0.22715307  0.79645972     0.11600
C219        C  0.22211270  0.47229278  0.85475220    -0.14500
C220        C  0.24997809  0.00005112  0.87655647     0.07700
C221        C  0.27783797  0.02780850  0.85475226    -0.14500
C222        C  0.27806811  0.02757134  0.81185749    -0.14500
C223        C  0.24997963  0.00003354  0.79004886     0.07700
C224        C  0.22188464  0.47251234  0.81185880    -0.14500
H225        H  0.20024884  0.45066726  0.87089600     0.11600
H226        H  0.29970153  0.04943920  0.87089656     0.11600
H227        H  0.29995816  0.04916125  0.79573134     0.11600
H228        H  0.19999420  0.45091570  0.79573473     0.11600
C229        C  0.40741798  0.28277276  0.00063807    -0.14500
C230        C  0.40778617  0.25067271  0.99990479     0.07700
C231        C  0.37534059  0.21860056  0.99913469    -0.14500
C232        C  0.34325543  0.21858906  0.99909063    -0.14500
C233        C  0.34284545  0.25064972  0.99986535     0.07700
C234        C  0.37528955  0.28276065  0.00063820    -0.14500
H235        H  0.43195589  0.30794355  0.00126763     0.11600
H236        H  0.37468015  0.19340998  0.99851719     0.11600
H237        H  0.31874787  0.19339227  0.99846921     0.11600
H238        H  0.37589670  0.30792657  0.00124462     0.11600
C239        C  0.12464479  0.28141917  0.99919880    -0.14500
C240        C  0.09219682  0.24934756  0.99989789     0.07700
C241        C  0.09256237  0.21724503  0.00054687    -0.14500
C242        C  0.12468939  0.21725385  0.00054164    -0.14500
C243        C  0.15713561  0.24936395  0.99984817     0.07700
C244        C  0.15672888  0.28142749  0.99915009    -0.14500
H245        H  0.12530797  0.30661181  0.99864548     0.11600
H246        H  0.06802307  0.19207415  0.00111448     0.11600
H247        H  0.12407951  0.19208596  0.00108347     0.11600
H248        H  0.18123816  0.30662414  0.99858977     0.11600
C249        C  0.47322777  0.22125595  0.85465962    -0.14500
C250        C  0.49999956  0.25000555  0.87650132     0.07700
C251        C  0.02677471  0.27876054  0.85467755    -0.14500
C252        C  0.02701963  0.27855208  0.81177955    -0.14500
C253        C  0.50000004  0.25002283  0.78998399     0.07700
C254        C  0.47298382  0.22148167  0.81176158    -0.14500
H255        H  0.45222331  0.19882575  0.87075322     0.11600
H256        H  0.04777885  0.30118500  0.87078547     0.11600
H257        H  0.04804862  0.30093777  0.79561504     0.11600
H258        H  0.45195612  0.19910130  0.79558221     0.11600
C259        C  0.34297774  0.46806912  0.99805643    -0.14500
C260        C  0.34257251  0.00011654  0.99993583     0.07700
C261        C  0.37500180  0.03217376  0.00180584    -0.14500
C262        C  0.40711118  0.03218270  0.00174868    -0.14500
C263        C  0.40750843  0.50013124  0.99988002     0.07700
C264        C  0.37507958  0.46807668  0.99804854    -0.14500
H265        H  0.31847005  0.44291194  0.99655751     0.11600
H266        H  0.37561909  0.05732212  0.00333377     0.11600
H267        H  0.43162638  0.05733212  0.00326644     0.11600
H268        H  0.37445721  0.44292554  0.99651929     0.11600
C269        C  0.09285546  0.46784668  0.00149855    -0.14500
C270        C  0.09246578  0.49991026  0.99990391     0.07700
C271        C  0.12490141  0.03197352  0.99833992    -0.14500
C272        C  0.15700152  0.03197782  0.99834437    -0.14500
C273        C  0.15739884  0.99991842  0.99995212     0.07700
C274        C  0.12496305  0.46785218  0.00155088    -0.14500
H275        H  0.06833525  0.44268893  0.00279545     0.11600
H276        H  0.12553141  0.05713507  0.99703141     0.11600
H277        H  0.18151462  0.05714286  0.99706386     0.11600
H278        H  0.12433897  0.44269369  0.00285545     0.11600
C279        C  0.02945111  0.52581188  0.85491872    -0.14500
C280        C  0.50000564  0.49998689  0.87665770     0.07700
C281        C  0.47057080  0.97414944  0.85490804    -0.14500
C282        C  0.47038912  0.97441507  0.81201702    -0.14500
C283        C  0.50001482  0.49998161  0.79017161     0.07700
C284        C  0.02964233  0.52554050  0.81202785    -0.14500
H285        H  0.05250891  0.54586913  0.87112775     0.11600
H286        H  0.44750925  0.95409445  0.87110836     0.11600
H287        H  0.44723913  0.95434864  0.79594087     0.11600
H288        H  0.05279497  0.54560615  0.79596045     0.11600
C289        C  0.22248324  0.25059311  0.47858882    -0.14500
C290        C  0.25004621  0.25008329  0.45676288     0.07700
C291        C  0.27761630  0.24958317  0.47858290    -0.14500
C292        C  0.27785008  0.25004311  0.52149025    -0.14500
C293        C  0.25004323  0.25006985  0.54331210     0.07700
C294        C  0.22224671  0.25012020  0.52149550    -0.14500
H295        H  0.20085468  0.25084446  0.46246071     0.11600
H296        H  0.29924383  0.24933301  0.46244975     0.11600
H297        H  0.29951135  0.24985937  0.53762781     0.11600
H298        H  0.20058389  0.25029805  0.53763749     0.11600
C299        C  0.25061820  0.27809432  0.18811611    -0.14500
C300        C  0.24996169  0.24995398  0.20991526     0.07700
C301        C  0.24930098  0.22181270  0.18810279    -0.14500
C302        C  0.24883907  0.22159691  0.14519524    -0.14500
C303        C  0.24996249  0.24996038  0.12336573     0.07700
C304        C  0.25108012  0.27831645  0.14521153    -0.14500
H305        H  0.25129323  0.30016291  0.20427096     0.11600
H306        H  0.24862775  0.19974411  0.20424811     0.11600
H307        H  0.24809709  0.19947432  0.12907135     0.11600
H308        H  0.25182308  0.30044233  0.12910195     0.11600
C309        C  0.27806215  0.50053045  0.47854885    -0.14500
C310        C  0.24998875  0.00001612  0.45674460     0.07700
C311        C  0.22191188  0.99949823  0.47854773    -0.14500
C312        C  0.22167582  0.99902060  0.52144750    -0.14500
C313        C  0.24998011  0.00000169  0.54326195     0.07700
C314        C  0.27828962  0.50099355  0.52144793    -0.14500
H315        H  0.30009264  0.50109076  0.46239531     0.11600
H316        H  0.19988430  0.99894193  0.46239297     0.11600
H317        H  0.19961755  0.99838868  0.53757432     0.11600
H318        H  0.30034533  0.50162105  0.53757472     0.11600
C319        C  0.25226934  0.47338132  0.14507878    -0.14500
C320        C  0.24996952  0.99997913  0.12330034     0.07700
C321        C  0.24766301  0.02656972  0.14509425    -0.14500
C322        C  0.24719615  0.02630295  0.18799993    -0.14500
C323        C  0.24996361  0.99997034  0.20985004     0.07700
C324        C  0.25272999  0.47363887  0.18798629    -0.14500
H325        H  0.25424210  0.45270629  0.12889620     0.11600
H326        H  0.24569315  0.04724877  0.12892456     0.11600
H327        H  0.24514604  0.04697870  0.20410100     0.11600
H328        H  0.25477897  0.45296136  0.20407742     0.11600
C329        C  0.97469816  0.25449635  0.47867784    -0.14500
C330        C  0.99999251  0.24998186  0.45680490     0.07700
C331        C  0.52528486  0.24546703  0.47867887    -0.14500
C332        C  0.52555911  0.24592589  0.52158311    -0.14500
C333        C  0.49999004  0.24998584  0.54333817     0.07700
C334        C  0.97442164  0.25404158  0.52158051    -0.14500
H335        H  0.95484022  0.25794335  0.46261326     0.11600
H336        H  0.54514429  0.24202063  0.46261458     0.11600
H337        H  0.54540732  0.24257193  0.53779304     0.11600
H338        H  0.95457357  0.25739949  0.53778746     0.11600
C339        C  0.37484130  0.15722780  0.33237641    -0.14500
C340        C  0.40730817  0.15759893  0.33340405     0.07700
C341        C  0.40693405  0.12514084  0.33454130    -0.14500
C342        C  0.37484846  0.09305396  0.33456295    -0.14500
C343        C  0.34238074  0.09266851  0.33347989     0.07700
C344        C  0.34273791  0.12512377  0.33243807    -0.14500
H345        H  0.37419260  0.18176033  0.33149621     0.11600
H346        H  0.43146258  0.12447707  0.33540316     0.11600
H347        H  0.37551892  0.06853284  0.33546031     0.11600
H348        H  0.31819548  0.12576085  0.33157580     0.11600
C349        C  0.09303491  0.37485427  0.33458739    -0.14500
C350        C  0.09265904  0.34239620  0.33342016     0.07700
C351        C  0.12512446  0.34276495  0.33236428    -0.14500
C352        C  0.15722855  0.37486786  0.33243007    -0.14500
C353        C  0.15758667  0.40732314  0.33350312     0.07700
C354        C  0.12512066  0.40693955  0.33461225    -0.14500
H355        H  0.06850741  0.37551929  0.33547002     0.11600
H356        H  0.12577135  0.31823175  0.33145868     0.11600
H357        H  0.18177028  0.37423014  0.33154449     0.11600
H358        H  0.12445163  0.43146105  0.33553267     0.11600
C359        C  0.99826450  0.22139410  0.18811861    -0.14500
C360        C  0.99995593  0.25001473  0.20991334     0.07700
C361        C  0.50164230  0.27863414  0.18812771    -0.14500
C362        C  0.50211505  0.27885419  0.14522637    -0.14500
C363        C  0.99996618  0.25001828  0.12339077     0.07700
C364        C  0.99780231  0.22117800  0.14521952    -0.14500
H365        H  0.99677547  0.19894408  0.20428836     0.11600
H366        H  0.50312793  0.30108259  0.20430537     0.11600
H367        H  0.50367719  0.30134664  0.12912390     0.11600
H368        H  0.99624353  0.19868561  0.12911288     0.11600
C369        C  0.47240164  0.50048422  0.47860089    -0.14500
C370        C  0.49998213  0.50000005  0.45678406     0.07700
C371        C  0.02755924  0.99951921  0.47860924    -0.14500
C372        C  0.02779325  0.99999277  0.52151139    -0.14500
C373        C  0.49998044  0.00001574  0.54331845     0.07700
C374        C  0.47216591  0.50002634  0.52150348    -0.14500
H375        H  0.45076415  0.50071456  0.46246630     0.11600
H376        H  0.04919799  0.99928463  0.46248193     0.11600
H377        H  0.04946333  0.99983159  0.53765722     0.11600
H378        H  0.45049499  0.50019221  0.53764282     0.11600
C379        C  0.37498201  0.34294668  0.33361158    -0.14500
C380        C  0.34250747  0.34257124  0.33342852     0.07700
C381        C  0.34286237  0.37503357  0.33334865    -0.14500
C382        C  0.37495654  0.40713207  0.33335129    -0.14500
C383        C  0.40743117  0.40750434  0.33347515     0.07700
C384        C  0.40707276  0.37504180  0.33365924    -0.14500
H385        H  0.37565153  0.31841616  0.33373079     0.11600
H386        H  0.31831960  0.37568591  0.33322552     0.11600
H387        H  0.37429098  0.43166465  0.33325301     0.11600
H388        H  0.43161297  0.37438481  0.33378418     0.11600
C389        C  0.15712799  0.12498432  0.33343564    -0.14500
C390        C  0.15748744  0.15744874  0.33350526     0.07700
C391        C  0.12501478  0.15707778  0.33365908    -0.14500
C392        C  0.09292153  0.12498519  0.33368785    -0.14500
C393        C  0.09255843  0.09252056  0.33351467     0.07700
C394        C  0.12503118  0.09288827  0.33341886    -0.14500
H395        H  0.18166905  0.12432860  0.33333146     0.11600
H396        H  0.12434857  0.18161003  0.33376531     0.11600
H397        H  0.06838304  0.12564570  0.33378832     0.11600
H398        H  0.12569324  0.06835373  0.33332841     0.11600
C399        C  0.49969054  0.47206817  0.18807479    -0.14500
C400        C  0.49999486  0.50003253  0.20990308     0.07700
C401        C  0.00029867  0.02800233  0.18809440    -0.14500
C402        C  0.00076465  0.02823431  0.14518624    -0.14500
C403        C  0.49999218  0.50004131  0.12334929     0.07700
C404        C  0.49922250  0.47184556  0.14516801    -0.14500
H405        H  0.49929984  0.45012650  0.20420992     0.11600
H406        H  0.00068942  0.04994030  0.20424601     0.11600
H407        H  0.00122572  0.05021714  0.12906472     0.11600
H408        H  0.49876031  0.44986492  0.12903234     0.11600
O409        O  0.47076978  0.94127811  0.33416721    -0.75600
O410        O  0.05874571  0.52918585  0.33255405    -0.75600
O411        O  0.01553091  0.98598154  0.39211938    -0.75700
O412        O  0.01398741  0.98445032  0.27455567    -0.75700
O413        O  0.48599845  0.51559328  0.27456963    -0.72000
O414        O  0.48445094  0.51403421  0.39212784    -0.75600
O415        O  0.02921788  0.55875038  0.33419847    -0.75600
O416        O  0.44123987  0.97084084  0.33254538    -0.75700
Ni417      Ni  0.01581116  0.98417093  0.33334269     1.25400
Ni418      Ni  0.48417432  0.51585762  0.33335508     1.25400
C419        C  0.44144957  0.94151270  0.33339244     0.86600
C420        C  0.05853765  0.55851438  0.33341767     0.86500
C421        C  0.49998844  0.00000485  0.41149334     0.86600
C422        C  0.99999383  0.00002510  0.25519346     0.86700
O423        O  0.47063293  0.69126865  0.33403649    -0.75600
O424        O  0.05874213  0.77904538  0.33250837    -0.75600
O425        O  0.01537282  0.73581025  0.39203693    -0.75700
O426        O  0.01392422  0.73439578  0.27449225    -0.75700
O427        O  0.48601823  0.76562765  0.27452121    -0.75600
O428        O  0.48461208  0.76417230  0.39206087    -0.75600
O429        O  0.02933441  0.80873076  0.33407530    -0.75600
O430        O  0.44122288  0.72095253  0.33252619    -0.75700
Ni431      Ni  0.01572152  0.73407851  0.33326258     1.25400
Ni432      Ni  0.48424373  0.76592233  0.33329262     1.25400
C433        C  0.44135388  0.69158176  0.33331146     0.86600
C434        C  0.05861251  0.80841597  0.33332407     0.86500
C435        C  0.99999370  0.74998827  0.41144904     0.86600
C436        C  0.99996716  0.75001391  0.25515755     0.86700
O437        O  0.26417706  0.98461844  0.27457669    -0.75600
O438        O  0.26554892  0.98600090  0.39212801    -0.75600
O439        O  0.22094172  0.94123682  0.33407777    -0.75700
O440        O  0.30871762  0.52934987  0.33267905    -0.75700
O441        O  0.27902414  0.55875400  0.33405852    -0.75600
O442        O  0.19124749  0.97064015  0.33269613    -0.75600
O443        O  0.23442865  0.51401862  0.39212580    -0.75600
O444        O  0.23576803  0.51534080  0.27457732    -0.75700
Ni445      Ni  0.26590223  0.98425308  0.33336022     1.25400
Ni446      Ni  0.23406173  0.51573713  0.33335877     1.25400
C447        C  0.24996879  0.49997493  0.25518630     0.86600
C448        C  0.24998951  0.50001267  0.41148358     0.86500
C449        C  0.19156634  0.94136677  0.33342508     0.86600
C450        C  0.30839978  0.55862397  0.33340390     0.86700
O451        O  0.26400400  0.73443143  0.27455314    -0.75600
O452        O  0.26557527  0.73603320  0.39210429    -0.75600
O453        O  0.22083037  0.69126191  0.33417463    -0.75700
O454        O  0.30874188  0.77923732  0.33251333    -0.75700
O455        O  0.27916642  0.80875582  0.33410439    -0.75600
O456        O  0.19125573  0.72078056  0.33256367    -0.75600
O457        O  0.23446756  0.76405727  0.39209465    -0.75600
O458        O  0.23594987  0.76551487  0.27454603    -0.75700
Ni459      Ni  0.26584384  0.73419080  0.33333187     1.25400
Ni460      Ni  0.23415386  0.76582655  0.33332158     1.25400
C461        C  0.24997029  0.74996380  0.25518886     0.86600
C462        C  0.25003050  0.75005852  0.41146934     0.86500
C463        C  0.19149542  0.69146716  0.33340882     0.86600
C464        C  0.30850137  0.80855102  0.33333853     0.86700
O465        O  0.02913582  0.97041565  0.99912970    -0.75600
O466        O  0.44125294  0.97055419  0.00067405    -0.75600
O467        O  0.48438015  0.97044220  0.94116630    -0.75700
O468        O  0.48592920  0.97048079  0.05868294    -0.75700
O469        O  0.01404304  0.52959093  0.05867902    -0.75600
O470        O  0.01559914  0.52956848  0.94115694    -0.75600
O471        O  0.47083849  0.52962801  0.99910597    -0.75600
O472        O  0.05872194  0.52948966  0.00069021    -0.75700
Ni473      Ni  0.48412333  0.96836662  0.99991551     1.25400
Ni474      Ni  0.01585135  0.53167672  0.99990853     1.25400
C475        C  0.05846785  0.99993348  0.99990294     0.86600
C476        C  0.44150686  0.00010997  0.99988040     0.86500
C477        C  0.49999417  0.00000007  0.92184136     0.86600
C478        C  0.49998719  0.00003877  0.07805169     0.86700
O479        O  0.05866516  0.77913091  0.00061271    -0.75600
O480        O  0.47113063  0.77996549  0.99928008    -0.75600
O481        O  0.01427558  0.77957661  0.05871335    -0.75700
O482        O  0.01556344  0.77955450  0.94118547    -0.75700
O483        O  0.48442190  0.72045683  0.94117975    -0.75600
O484        O  0.48569866  0.72045947  0.05870822    -0.75600
O485        O  0.44131776  0.72089154  0.00060015    -0.75600
O486        O  0.02885152  0.72005704  0.99928249    -0.75700
Ni487      Ni  0.01597827  0.78166056  0.99994864     1.25400
Ni488      Ni  0.48400362  0.71836256  0.99994373     1.25400
C489        C  0.05825853  0.74949462  0.99993711     0.86600
C490        C  0.44172431  0.75052749  0.99993313     0.86500
C491        C  0.99998093  0.75001896  0.07808571     0.86600
C492        C  0.49999440  0.75000485  0.92180693     0.86700
O493        O  0.22071352  0.52949125  0.99900293    -0.75600
O494        O  0.30871926  0.52960524  0.00090489    -0.75600
O495        O  0.26559252  0.52958950  0.94119349    -0.75700
O496        O  0.26382886  0.52955056  0.05872367    -0.75700
O497        O  0.23613143  0.97044250  0.05869090    -0.75600
O498        O  0.23438470  0.97048338  0.94116247    -0.75600
O499        O  0.27925735  0.97054214  0.99895268    -0.75600
O500        O  0.19125037  0.97042682  0.00088229    -0.75700
Ni501      Ni  0.26576765  0.53166736  0.99995681     1.25400
Ni502      Ni  0.23420248  0.96836544  0.99992051     1.25400
C503        C  0.19142342  0.49994295  0.99994625     0.86600
C504        C  0.30854697  0.50009008  0.99993124     0.86500
C505        C  0.24998611  0.50004202  0.92181941     0.86600
C506        C  0.24997768  0.49999071  0.07805452     0.86700
O507        O  0.22044760  0.77914156  0.99899815    -0.75600
O508        O  0.30878948  0.77993582  0.00082275    -0.75600
O509        O  0.26553477  0.77961051  0.94114058    -0.75700
O510        O  0.26378140  0.77952470  0.05869258    -0.75700
O511        O  0.23617111  0.72043629  0.05865887    -0.75600
O512        O  0.23446469  0.72043242  0.94111050    -0.75600
O513        O  0.27953309  0.72086758  0.99897013    -0.75600
O514        O  0.19118845  0.72007219  0.00078306    -0.75700
Ni515      Ni  0.26566937  0.78166403  0.99991694     1.25400
Ni516      Ni  0.23430872  0.71834153  0.99988139     1.25400
C517        C  0.19122264  0.74951436  0.99987527     0.86600
C518        C  0.30875706  0.75049536  0.99988508     0.86500
C519        C  0.25000038  0.75002630  0.92190028     0.86600
C520        C  0.24997240  0.74997389  0.07805420     0.86700
O521        O  0.02952146  0.97078144  0.66748227    -0.75600
O522        O  0.02954479  0.55874428  0.66595890    -0.75600
O523        O  0.02955836  0.51544394  0.72546148    -0.75700
O524        O  0.02954517  0.51403422  0.60794938    -0.75700
O525        O  0.47042542  0.98601588  0.60795569    -0.75600
O526        O  0.47045148  0.98456561  0.72546888    -0.75600
O527        O  0.47046681  0.52925142  0.66754035    -0.75600
O528        O  0.47044284  0.94128917  0.66591576    -0.75700
Ni529      Ni  0.03164744  0.51580793  0.66671086     1.25400
Ni530      Ni  0.46834144  0.98422484  0.66671891     1.25400
C531        C  0.49997846  0.94148280  0.66670409     0.86600
C532        C  0.50000915  0.55855054  0.66676505     0.86500
C533        C  0.50000815  0.49999691  0.74485049     0.86600
C534        C  0.49998316  0.50002395  0.58859181     0.86700
O535        O  0.02950927  0.72077809  0.66750207    -0.75600
O536        O  0.02955893  0.80875143  0.66579625    -0.75600
O537        O  0.02956045  0.76560360  0.72540011    -0.75700
O538        O  0.02955807  0.76391186  0.60787230    -0.75700
O539        O  0.47042589  0.73609062  0.60787136    -0.75600
O540        O  0.47043451  0.73446015  0.72539991    -0.75600
O541        O  0.47047833  0.77925695  0.66747476    -0.75600
O542        O  0.47042853  0.69128301  0.66582304    -0.75700
Ni543      Ni  0.03165491  0.76581655  0.66664000     1.25400
Ni544      Ni  0.46833357  0.73421832  0.66663968     1.25400
C545        C  0.49996392  0.69147950  0.66668453     0.86600
C546        C  0.50002337  0.80855514  0.66664686     0.86500
C547        C  0.49999844  0.75003114  0.74474564     0.86600
C548        C  0.49999137  0.74999561  0.58854334     0.86700
O549        O  0.21968630  0.52856208  0.66746036    -0.75600
O550        O  0.22120434  0.94137809  0.66593458    -0.75600
O551        O  0.22043512  0.98422677  0.72541734    -0.75700
O552        O  0.22041190  0.98565186  0.60790690    -0.75700
O553        O  0.27954655  0.51433536  0.60790962    -0.75600
O554        O  0.27953202  0.51579033  0.72542133    -0.75600
O555        O  0.28028059  0.97143946  0.66746487    -0.75600
O556        O  0.27876264  0.55861922  0.66593406    -0.75700
Ni557      Ni  0.21832883  0.98386977  0.66667077     1.25400
Ni558      Ni  0.28163562  0.51612936  0.66667346     1.25400
C559        C  0.24904021  0.55804839  0.66675766     0.86600
C560        C  0.25092876  0.94195176  0.66676195     0.86500
C561        C  0.24998303  0.50001592  0.74477866     0.86600
C562        C  0.24997900  0.49999538  0.58854384     0.86700
O563        O  0.21967379  0.69120871  0.66647809    -0.75600
O564        O  0.22125332  0.77994066  0.66704995    -0.75600
O565        O  0.22046562  0.73601400  0.60796051    -0.75700
O566        O  0.22044979  0.73545069  0.72554205    -0.75700
O567        O  0.27953887  0.76454567  0.72555756    -0.75600
O568        O  0.27958383  0.76404774  0.60798258    -0.75600
O569        O  0.28033786  0.80881470  0.66653178    -0.75600
O570        O  0.27875797  0.72007816  0.66703501    -0.75700
Ni571      Ni  0.21836161  0.73461354  0.66675135     1.25400
Ni572      Ni  0.28165347  0.76541001  0.66677248     1.25400
C573        C  0.24901067  0.69099073  0.66678936     0.86600
C574        C  0.25099847  0.80902904  0.66682906     0.86500
C575        C  0.25003020  0.75004209  0.58860270     0.86600
C576        C  0.24999182  0.74999804  0.74499825     0.86700
C577        C  0.21917416  0.87562636  0.66676206    -0.14500
C578        C  0.25122363  0.90808628  0.66691458     0.07700
C579        C  0.28336542  0.90775998  0.66718973    -0.14500
C580        C  0.28339135  0.87563262  0.66717523    -0.14500
C581        C  0.25127721  0.84318141  0.66692576     0.07700
C582        C  0.21919975  0.84358154  0.66677421    -0.14500
H583        H  0.19395037  0.87491313  0.66661164     0.11600
H584        H  0.30852328  0.93231990  0.66735253     0.11600
H585        H  0.30856290  0.87623577  0.66734487     0.11600
H586        H  0.19398891  0.81908018  0.66661569     0.11600
C587        C  0.28080892  0.62437286  0.66670632    -0.14500
C588        C  0.24875404  0.59191772  0.66690165     0.07700
C589        C  0.21661800  0.59225393  0.66720469    -0.14500
C590        C  0.21660300  0.62438673  0.66717502    -0.14500
C591        C  0.24872258  0.65683343  0.66688361     0.07700
C592        C  0.28079421  0.65642300  0.66670365    -0.14500
H593        H  0.30602901  0.62507848  0.66653219     0.11600
H594        H  0.19145671  0.56769796  0.66740194     0.11600
H595        H  0.19143526  0.62379126  0.66737047     0.11600
H596        H  0.30600852  0.68092024  0.66651241     0.11600
C597        C  0.46793760  0.87503910  0.66484292    -0.14500
C598        C  0.49998474  0.90747325  0.66671181     0.07700
C599        C  0.03205048  0.90708585  0.66858066    -0.14500
C600        C  0.03206800  0.87499497  0.66854077    -0.14500
C601        C  0.50001990  0.84256303  0.66667713     0.07700
C602        C  0.46795398  0.84294828  0.66484827    -0.14500
H603        H  0.44277557  0.87440265  0.66333494     0.11600
H604        H  0.05720115  0.93159882  0.67010130     0.11600
H605        H  0.05722739  0.87562592  0.67005929     0.11600
H606        H  0.44280553  0.81843312  0.66331940     0.11600
C607        C  0.03204969  0.62499490  0.66493227    -0.14500
C608        C  0.50000227  0.59256056  0.66678595     0.07700
C609        C  0.46793582  0.59294838  0.66863617    -0.14500
C610        C  0.46791820  0.62503955  0.66858930    -0.14500
C611        C  0.49996687  0.65747133  0.66673611     0.07700
C612        C  0.03203328  0.65708570  0.66493088    -0.14500
H613        H  0.05721233  0.62563151  0.66343771     0.11600
H614        H  0.44278462  0.56843544  0.67014223     0.11600
H615        H  0.44275825  0.62440887  0.67008937     0.11600
H616        H  0.05718216  0.68160054  0.66341152     0.11600
C617        C  0.21805429  0.73689542  0.85532695    -0.14500
C618        C  0.24999921  0.75003347  0.87692177     0.07700
C619        C  0.28193978  0.76315855  0.85532584    -0.14500
C620        C  0.28194136  0.76292773  0.81241213    -0.14500
C621        C  0.24999075  0.75000487  0.79045999     0.07700
C622        C  0.21804406  0.73709795  0.81241230    -0.14500
H623        H  0.19320603  0.72687837  0.87170486     0.11600
H624        H  0.30679045  0.77318056  0.87170180     0.11600
H625        H  0.30695638  0.77286159  0.79645964     0.11600
H626        H  0.19302691  0.72715417  0.79645969     0.11600
C627        C  0.22211272  0.97229279  0.85475220    -0.14500
C628        C  0.24997808  0.50005108  0.87655647     0.07700
C629        C  0.27783802  0.52780843  0.85475227    -0.14500
C630        C  0.27806810  0.52757130  0.81185749    -0.14500
C631        C  0.24997961  0.50003353  0.79004886     0.07700
C632        C  0.22188468  0.97251235  0.81185881    -0.14500
H633        H  0.20024890  0.95066727  0.87089600     0.11600
H634        H  0.29970160  0.54943905  0.87089656     0.11600
H635        H  0.29995816  0.54916122  0.79573134     0.11600
H636        H  0.19999423  0.95091565  0.79573473     0.11600
C637        C  0.40741794  0.78277260  0.00063807    -0.14500
C638        C  0.40778610  0.75067252  0.99990480     0.07700
C639        C  0.37534052  0.71860041  0.99913469    -0.14500
C640        C  0.34325535  0.71858890  0.99909063    -0.14500
C641        C  0.34284540  0.75064959  0.99986535     0.07700
C642        C  0.37528950  0.78276051  0.00063821    -0.14500
H643        H  0.43195581  0.80794333  0.00126763     0.11600
H644        H  0.37468006  0.69340976  0.99851719     0.11600
H645        H  0.31874780  0.69339213  0.99846920     0.11600
H646        H  0.37589668  0.80792641  0.00124462     0.11600
C647        C  0.12464483  0.78141921  0.99919883    -0.14500
C648        C  0.09219685  0.74934760  0.99989790     0.07700
C649        C  0.09256241  0.71724507  0.00054686    -0.14500
C650        C  0.12468943  0.71725389  0.00054170    -0.14500
C651        C  0.15713564  0.74936399  0.99984830     0.07700
C652        C  0.15672891  0.78142751  0.99915016    -0.14500
H653        H  0.12530799  0.80661184  0.99864553     0.11600
H654        H  0.06802310  0.69207418  0.00111443     0.11600
H655        H  0.12407955  0.69208600  0.00108346     0.11600
H656        H  0.18123822  0.80662418  0.99858980     0.11600
C657        C  0.47322776  0.72125594  0.85465956    -0.14500
C658        C  0.49999956  0.75000552  0.87650128     0.07700
C659        C  0.02677474  0.77876054  0.85467753    -0.14500
C660        C  0.02701968  0.77855210  0.81177954    -0.14500
C661        C  0.50000006  0.75002282  0.78998396     0.07700
C662        C  0.47298384  0.72148168  0.81176154    -0.14500
H663        H  0.45222327  0.69882573  0.87075313     0.11600
H664        H  0.04777894  0.80118503  0.87078547     0.11600
H665        H  0.04804867  0.80093772  0.79561503     0.11600
H666        H  0.45195612  0.69910129  0.79558214     0.11600
C667        C  0.34297775  0.96806911  0.99805664    -0.14500
C668        C  0.34257250  0.50011654  0.99993577     0.07700
C669        C  0.37500176  0.53217376  0.00180586    -0.14500
C670        C  0.40711117  0.53218273  0.00174872    -0.14500
C671        C  0.40750846  0.00013123  0.99988002     0.07700
C672        C  0.37507959  0.96807665  0.99804864    -0.14500
H673        H  0.31847004  0.94291192  0.99655790     0.11600
H674        H  0.37561903  0.55732211  0.00333385     0.11600
H675        H  0.43162634  0.55733211  0.00326654     0.11600
H676        H  0.37445721  0.94292555  0.99651942     0.11600
C677        C  0.09285544  0.96784665  0.00149855    -0.14500
C678        C  0.09246579  0.99991025  0.99990391     0.07700
C679        C  0.12490141  0.53197354  0.99833992    -0.14500
C680        C  0.15700153  0.53197786  0.99834437    -0.14500
C681        C  0.15739885  0.49991845  0.99995212     0.07700
C682        C  0.12496304  0.96785215  0.00155088    -0.14500
H683        H  0.06833525  0.94268895  0.00279545     0.11600
H684        H  0.12553139  0.55713508  0.99703141     0.11600
H685        H  0.18151461  0.55714289  0.99706386     0.11600
H686        H  0.12433894  0.94269365  0.00285546     0.11600
C687        C  0.02945122  0.02581164  0.85491872    -0.14500
C688        C  0.50000559  0.99998680  0.87665771     0.07700
C689        C  0.47057099  0.47414931  0.85490805    -0.14500
C690        C  0.47038933  0.47441487  0.81201700    -0.14500
C691        C  0.50001473  0.99998158  0.79017161     0.07700
C692        C  0.02964245  0.02554028  0.81202785    -0.14500
H693        H  0.05250916  0.04586876  0.87112776     0.11600
H694        H  0.44750958  0.45409420  0.87110832     0.11600
H695        H  0.44723955  0.45434824  0.79594088     0.11600
H696        H  0.05279516  0.04560575  0.79596048     0.11600
C697        C  0.22248322  0.75059315  0.47858882    -0.14500
C698        C  0.25004619  0.75008333  0.45676285     0.07700
C699        C  0.27761624  0.74958316  0.47858291    -0.14500
C700        C  0.27784998  0.75004300  0.52149022    -0.14500
C701        C  0.25004317  0.75006983  0.54331210     0.07700
C702        C  0.22224670  0.75012024  0.52149547    -0.14500
H703        H  0.20085462  0.75084450  0.46246066     0.11600
H704        H  0.29924384  0.74933304  0.46244973     0.11600
H705        H  0.29951120  0.74985917  0.53762779     0.11600
H706        H  0.20058386  0.75029812  0.53763750     0.11600
C707        C  0.25061825  0.77809436  0.18811611    -0.14500
C708        C  0.24996169  0.74995399  0.20991525     0.07700
C709        C  0.24930090  0.72181268  0.18810280    -0.14500
C710        C  0.24883907  0.72159693  0.14519525    -0.14500
C711        C  0.24996251  0.74996041  0.12336573     0.07700
C712        C  0.25108014  0.77831647  0.14521153    -0.14500
H713        H  0.25129328  0.80016296  0.20427097     0.11600
H714        H  0.24862758  0.69974406  0.20424809     0.11600
H715        H  0.24809712  0.69947435  0.12907137     0.11600
H716        H  0.25182308  0.80044237  0.12910192     0.11600
C717        C  0.27806217  0.00053041  0.47854885    -0.14500
C718        C  0.24998876  0.50001619  0.45674460     0.07700
C719        C  0.22191191  0.49949835  0.47854775    -0.14500
C720        C  0.22167581  0.49902062  0.52144751    -0.14500
C721        C  0.24998011  0.50000170  0.54326196     0.07700
C722        C  0.27828963  0.00099351  0.52144795    -0.14500
H723        H  0.30009267  0.00109074  0.46239534     0.11600
H724        H  0.19988435  0.49894211  0.46239301     0.11600
H725        H  0.19961750  0.49838861  0.53757436     0.11600
H726        H  0.30034530  0.00162101  0.53757474     0.11600
C727        C  0.25226950  0.97338140  0.14507878    -0.14500
C728        C  0.24996958  0.49997919  0.12330035     0.07700
C729        C  0.24766317  0.52656981  0.14509423    -0.14500
C730        C  0.24719633  0.52630310  0.18799993    -0.14500
C731        C  0.24996364  0.49997038  0.20985003     0.07700
C732        C  0.25273021  0.97363896  0.18798627    -0.14500
H733        H  0.25424242  0.95270643  0.12889614     0.11600
H734        H  0.24569333  0.54724889  0.12892452     0.11600
H735        H  0.24514633  0.54697888  0.20410096     0.11600
H736        H  0.25477940  0.95296156  0.20407739     0.11600
C737        C  0.97469802  0.75449612  0.47867782    -0.14500
C738        C  0.99999254  0.74998190  0.45680490     0.07700
C739        C  0.52528494  0.74546714  0.47867887    -0.14500
C740        C  0.52555919  0.74592597  0.52158312    -0.14500
C741        C  0.49999004  0.74998580  0.54333816     0.07700
C742        C  0.97442148  0.75404136  0.52158049    -0.14500
H743        H  0.95483994  0.75794291  0.46261321     0.11600
H744        H  0.54514448  0.74202090  0.46261457     0.11600
H745        H  0.54540745  0.74257215  0.53779303     0.11600
H746        H  0.95457326  0.75739905  0.53778741     0.11600
C747        C  0.37484130  0.65722777  0.33237647    -0.14500
C748        C  0.40730818  0.65759892  0.33340399     0.07700
C749        C  0.40693407  0.62514084  0.33454114    -0.14500
C750        C  0.37484849  0.59305394  0.33456289    -0.14500
C751        C  0.34238075  0.59266850  0.33347995     0.07700
C752        C  0.34273791  0.62512374  0.33243823    -0.14500
H753        H  0.37419258  0.68176030  0.33149625     0.11600
H754        H  0.43146261  0.62447707  0.33540288     0.11600
H755        H  0.37551898  0.56853287  0.33546027     0.11600
H756        H  0.31819548  0.62576082  0.33157608     0.11600
C757        C  0.09303487  0.87485426  0.33458735    -0.14500
C758        C  0.09265905  0.84239619  0.33342022     0.07700
C759        C  0.12512446  0.84276495  0.33236454    -0.14500
C760        C  0.15722857  0.87486787  0.33243030    -0.14500
C761        C  0.15758664  0.90732316  0.33350318     0.07700
C762        C  0.12512063  0.90693954  0.33461225    -0.14500
H763        H  0.06850743  0.87551929  0.33546987     0.11600
H764        H  0.12577137  0.81823175  0.33145905     0.11600
H765        H  0.18177024  0.87423017  0.33154479     0.11600
H766        H  0.12445155  0.93146103  0.33553259     0.11600
C767        C  0.99826440  0.72139407  0.18811861    -0.14500
C768        C  0.99995591  0.75001473  0.20991334     0.07700
C769        C  0.50164233  0.77863417  0.18812772    -0.14500
C770        C  0.50211510  0.77885424  0.14522637    -0.14500
C771        C  0.99996622  0.75001834  0.12339076     0.07700
C772        C  0.99780227  0.72117801  0.14521951    -0.14500
H773        H  0.99677526  0.69894401  0.20428834     0.11600
H774        H  0.50312797  0.80108261  0.20430540     0.11600
H775        H  0.50367727  0.80134671  0.12912392     0.11600
H776        H  0.99624347  0.69868563  0.12911288     0.11600
C777        C  0.47240161  0.00048419  0.47860090    -0.14500
C778        C  0.49998214  0.00000010  0.45678405     0.07700
C779        C  0.02755909  0.49951900  0.47860924    -0.14500
C780        C  0.02779317  0.49999267  0.52151139    -0.14500
C781        C  0.49998043  0.50001571  0.54331845     0.07700
C782        C  0.47216589  0.00002629  0.52150348    -0.14500
H783        H  0.45076409  0.00071446  0.46246631     0.11600
H784        H  0.04919777  0.49928425  0.46248194     0.11600
H785        H  0.04946321  0.49983143  0.53765723     0.11600
H786        H  0.45049493  0.00019211  0.53764282     0.11600
C787        C  0.37498203  0.84294671  0.33361158    -0.14500
C788        C  0.34250748  0.84257125  0.33342852     0.07700
C789        C  0.34286239  0.87503359  0.33334865    -0.14500
C790        C  0.37495656  0.90713210  0.33335129    -0.14500
C791        C  0.40743120  0.90750437  0.33347514     0.07700
C792        C  0.40707279  0.87504183  0.33365925    -0.14500
H793        H  0.37565156  0.81841619  0.33373079     0.11600
H794        H  0.31831962  0.87568593  0.33322553     0.11600
H795        H  0.37429101  0.93166468  0.33325301     0.11600
H796        H  0.43161299  0.87438484  0.33378417     0.11600
C797        C  0.15712793  0.62498428  0.33343564    -0.14500
C798        C  0.15748740  0.65744873  0.33350527     0.07700
C799        C  0.12501476  0.65707780  0.33365908    -0.14500
C800        C  0.09292147  0.62498523  0.33368785    -0.14500
C801        C  0.09255836  0.59252057  0.33351466     0.07700
C802        C  0.12503107  0.59288825  0.33341886    -0.14500
H803        H  0.18166889  0.62432849  0.33333146     0.11600
H804        H  0.12434859  0.68161009  0.33376531     0.11600
H805        H  0.06838301  0.62564576  0.33378832     0.11600
H806        H  0.12569309  0.56835371  0.33332841     0.11600
C807        C  0.49969054  0.97206813  0.18807478    -0.14500
C808        C  0.49999484  0.00003249  0.20990307     0.07700
C809        C  0.00029866  0.52800237  0.18809441    -0.14500
C810        C  0.00076469  0.52823437  0.14518624    -0.14500
C811        C  0.49999213  0.00004123  0.12334925     0.07700
C812        C  0.49922243  0.97184548  0.14516799    -0.14500
H813        H  0.49929989  0.95012650  0.20420993     0.11600
H814        H  0.00068945  0.54994036  0.20424601     0.11600
H815        H  0.00122576  0.55021720  0.12906471     0.11600
H816        H  0.49876021  0.94986482  0.12903233     0.11600
O817        O  0.97076972  0.44127810  0.33416721    -0.75600
O818        O  0.55874577  0.02918585  0.33255408    -0.75600
O819        O  0.51553107  0.48598168  0.39211938    -0.75700
O820        O  0.51398735  0.48445028  0.27455566    -0.75700
O821        O  0.98599843  0.01559325  0.27456959    -0.72000
O822        O  0.98445092  0.01403422  0.39212782    -0.75600
O823        O  0.52921794  0.05875038  0.33419848    -0.75600
O824        O  0.94123981  0.47084081  0.33254553    -0.75700
Ni825      Ni  0.51581122  0.48417094  0.33334268     1.25400
Ni826      Ni  0.98417428  0.01585764  0.33335503     1.25400
C827        C  0.94144951  0.44151267  0.33339251     0.86600
C828        C  0.55853772  0.05851437  0.33341768     0.86500
C829        C  0.99998843  0.50000490  0.41149334     0.86600
C830        C  0.49999379  0.50002508  0.25519347     0.86700
O831        O  0.97063293  0.19126864  0.33403647    -0.75600
O832        O  0.55874207  0.27904537  0.33250836    -0.75600
O833        O  0.51537283  0.23581021  0.39203693    -0.75700
O834        O  0.51392415  0.23439578  0.27449227    -0.75700
O835        O  0.98601827  0.26562767  0.27452122    -0.75600
O836        O  0.98461199  0.26417228  0.39206088    -0.75600
O837        O  0.52933437  0.30873077  0.33407529    -0.75600
O838        O  0.94122290  0.22095252  0.33252617    -0.75700
Ni839      Ni  0.51572147  0.23407849  0.33326258     1.25400
Ni840      Ni  0.98424372  0.26592232  0.33329262     1.25400
C841        C  0.94135389  0.19158176  0.33331147     0.86600
C842        C  0.55861248  0.30841597  0.33332407     0.86500
C843        C  0.49999373  0.24998823  0.41144904     0.86600
C844        C  0.49996713  0.25001392  0.25515755     0.86700
O845        O  0.76417695  0.48461840  0.27457669    -0.75600
O846        O  0.76554899  0.48600097  0.39212802    -0.75600
O847        O  0.72094171  0.44123683  0.33407780    -0.75700
O848        O  0.80871754  0.02934990  0.33267908    -0.75700
O849        O  0.77902410  0.05875407  0.33405848    -0.75600
O850        O  0.69124745  0.47064012  0.33269615    -0.75600
O851        O  0.73442881  0.01401878  0.39212582    -0.75600
O852        O  0.73576803  0.01534083  0.27457731    -0.75700
Ni853      Ni  0.76590220  0.48425309  0.33336022     1.25400
Ni854      Ni  0.73406175  0.01573719  0.33335878     1.25400
C855        C  0.74996876  0.99997491  0.25518630     0.86600
C856        C  0.74998953  0.00001266  0.41148357     0.86500
C857        C  0.69156633  0.44136674  0.33342508     0.86600
C858        C  0.80839972  0.05862400  0.33340388     0.86700
O859        O  0.76400399  0.23443150  0.27455318    -0.75600
O860        O  0.76557527  0.23603320  0.39210431    -0.75600
O861        O  0.72083034  0.19126194  0.33417463    -0.75700
O862        O  0.80874186  0.27923734  0.33251335    -0.75700
O863        O  0.77916643  0.30875587  0.33410442    -0.75600
O864        O  0.69125570  0.22078062  0.33256365    -0.75600
O865        O  0.73446754  0.26405725  0.39209468    -0.75600
O866        O  0.73594989  0.26551500  0.27454600    -0.75700
Ni867      Ni  0.76584382  0.23419083  0.33333188     1.25400
Ni868      Ni  0.73415385  0.26582662  0.33332158     1.25400
C869        C  0.74997030  0.24996388  0.25518887     0.86600
C870        C  0.75003048  0.25005848  0.41146935     0.86500
C871        C  0.69149538  0.19146721  0.33340881     0.86600
C872        C  0.80850136  0.30855104  0.33333854     0.86700
O873        O  0.52913579  0.47041564  0.99912973    -0.75600
O874        O  0.94125289  0.47055420  0.00067408    -0.75600
O875        O  0.98438009  0.47044225  0.94116631    -0.75700
O876        O  0.98592918  0.47048080  0.05868299    -0.75700
O877        O  0.51404309  0.02959091  0.05867901    -0.75600
O878        O  0.51559910  0.02956843  0.94115693    -0.75600
O879        O  0.97083852  0.02962800  0.99910596    -0.75600
O880        O  0.55872195  0.02948967  0.00069018    -0.75700
Ni881      Ni  0.98412328  0.46836663  0.99991554     1.25400
Ni882      Ni  0.51585137  0.03167671  0.99990852     1.25400
C883        C  0.55846780  0.49993348  0.99990295     0.86600
C884        C  0.94150682  0.50010998  0.99988040     0.86500
C885        C  0.99999418  0.50000012  0.92184137     0.86600
C886        C  0.99998717  0.50003880  0.07805172     0.86700
O887        O  0.55866516  0.27913087  0.00061277    -0.75600
O888        O  0.97113071  0.27996561  0.99928014    -0.75600
O889        O  0.51427557  0.27957657  0.05871341    -0.75700
O890        O  0.51556340  0.27955448  0.94118553    -0.75700
O891        O  0.98442190  0.22045681  0.94117975    -0.75600
O892        O  0.98569860  0.22045943  0.05870823    -0.75600
O893        O  0.94131780  0.22089165  0.00060015    -0.75600
O894        O  0.52885146  0.22005700  0.99928248    -0.75700
Ni895      Ni  0.51597830  0.28166055  0.99994871     1.25400
Ni896      Ni  0.98400361  0.21836256  0.99994374     1.25400
C897        C  0.55825850  0.24949456  0.99993712     0.86600
C898        C  0.94172437  0.25052762  0.99993314     0.86500
C899        C  0.49998094  0.25001892  0.07808574     0.86600
C900        C  0.99999441  0.25000484  0.92180696     0.86700
O901        O  0.72071346  0.02949124  0.99900289    -0.75600
O902        O  0.80871923  0.02960523  0.00090493    -0.75600
O903        O  0.76559259  0.02958949  0.94119350    -0.75700
O904        O  0.76382878  0.02955051  0.05872368    -0.75700
O905        O  0.73613141  0.47044254  0.05869090    -0.75600
O906        O  0.73438464  0.47048337  0.94116248    -0.75600
O907        O  0.77925732  0.47054215  0.99895268    -0.75600
O908        O  0.69125030  0.47042683  0.00088230    -0.75700
Ni909      Ni  0.76576762  0.03166735  0.99995682     1.25400
Ni910      Ni  0.73420243  0.46836545  0.99992052     1.25400
C911        C  0.69142335  0.99994293  0.99994625     0.86600
C912        C  0.80854693  0.00009007  0.99993126     0.86500
C913        C  0.74998615  0.00004203  0.92181941     0.86600
C914        C  0.74997765  0.99999068  0.07805452     0.86700
O915        O  0.72044752  0.27914145  0.99899811    -0.75600
O916        O  0.80878947  0.27993586  0.00082278    -0.75600
O917        O  0.76553482  0.27961046  0.94114058    -0.75700
O918        O  0.76378136  0.27952472  0.05869258    -0.75700
O919        O  0.73617114  0.22043631  0.05865887    -0.75600
O920        O  0.73446466  0.22043237  0.94111050    -0.75600
O921        O  0.77953315  0.22086763  0.99897013    -0.75600
O922        O  0.69118840  0.22007207  0.00078307    -0.75700
Ni923      Ni  0.76566933  0.28166399  0.99991693     1.25400
Ni924      Ni  0.73430873  0.21834151  0.99988139     1.25400
C925        C  0.69122257  0.24951425  0.99987526     0.86600
C926        C  0.80875709  0.25049542  0.99988509     0.86500
C927        C  0.75000038  0.25002624  0.92190028     0.86600
C928        C  0.74997238  0.24997391  0.07805420     0.86700
O929        O  0.52952145  0.47078146  0.66748228    -0.75600
O930        O  0.52954478  0.05874425  0.66595888    -0.75600
O931        O  0.52955835  0.01544393  0.72546151    -0.75700
O932        O  0.52954519  0.01403413  0.60794938    -0.75700
O933        O  0.97042538  0.48601583  0.60795569    -0.75600
O934        O  0.97045149  0.48456563  0.72546891    -0.75600
O935        O  0.97046677  0.02925140  0.66754033    -0.75600
O936        O  0.97044288  0.44128922  0.66591578    -0.75700
Ni937      Ni  0.53164745  0.01580789  0.66671086     1.25400
Ni938      Ni  0.96834143  0.48422485  0.66671892     1.25400
C939        C  0.99997852  0.44148288  0.66670410     0.86600
C940        C  0.00000912  0.05855051  0.66676506     0.86500
C941        C  0.00000813  0.99999692  0.74485049     0.86600
C942        C  0.99998313  0.00002393  0.58859181     0.86700
O943        O  0.52950929  0.22077806  0.66750206    -0.75600
O944        O  0.52955894  0.30875140  0.66579626    -0.75600
O945        O  0.52956049  0.26560359  0.72540014    -0.75700
O946        O  0.52955805  0.26391185  0.60787231    -0.75700
O947        O  0.97042591  0.23609061  0.60787136    -0.75600
O948        O  0.97043445  0.23446015  0.72539992    -0.75600
O949        O  0.97047827  0.27925691  0.66747475    -0.75600
O950        O  0.97042852  0.19128298  0.66582305    -0.75700
Ni951      Ni  0.53165492  0.26581653  0.66664000     1.25400
Ni952      Ni  0.96833355  0.23421830  0.66663968     1.25400
C953        C  0.99996390  0.19147947  0.66668452     0.86600
C954        C  0.00002328  0.30855510  0.66664685     0.86500
C955        C  0.99999838  0.25003116  0.74474564     0.86600
C956        C  0.99999139  0.24999564  0.58854333     0.86700
O957        O  0.71968631  0.02856209  0.66746037    -0.75600
O958        O  0.72120445  0.44137813  0.66593457    -0.75600
O959        O  0.72043513  0.48422672  0.72541733    -0.75700
O960        O  0.72041191  0.48565182  0.60790692    -0.75700
O961        O  0.77954657  0.01433532  0.60790960    -0.75600
O962        O  0.77953202  0.01579040  0.72542133    -0.75600
O963        O  0.78028069  0.47143951  0.66746485    -0.75600
O964        O  0.77876265  0.05861923  0.66593403    -0.75700
Ni965      Ni  0.71832888  0.48386975  0.66667077     1.25400
Ni966      Ni  0.78163564  0.01612936  0.66667346     1.25400
C967        C  0.74904020  0.05804839  0.66675766     0.86600
C968        C  0.75092887  0.44195182  0.66676194     0.86500
C969        C  0.74998303  0.00001598  0.74477866     0.86600
C970        C  0.74997900  0.99999538  0.58854384     0.86700
O971        O  0.71967379  0.19120869  0.66647807    -0.75600
O972        O  0.72125329  0.27994063  0.66704996    -0.75600
O973        O  0.72046564  0.23601400  0.60796051    -0.75700
O974        O  0.72044977  0.23545062  0.72554206    -0.75700
O975        O  0.77953887  0.26454566  0.72555756    -0.75600
O976        O  0.77958384  0.26404778  0.60798259    -0.75600
O977        O  0.78033785  0.30881469  0.66653179    -0.75600
O978        O  0.77875798  0.22007813  0.66703499    -0.75700
Ni979      Ni  0.71836160  0.23461352  0.66675135     1.25400
Ni980      Ni  0.78165348  0.26541001  0.66677248     1.25400
C981        C  0.74901065  0.19099071  0.66678929     0.86600
C982        C  0.75099848  0.30902903  0.66682907     0.86500
C983        C  0.75003022  0.25004212  0.58860271     0.86600
C984        C  0.74999182  0.24999802  0.74499825     0.86700
C985        C  0.71917419  0.37562639  0.66676203    -0.14500
C986        C  0.75122366  0.40808631  0.66691458     0.07700
C987        C  0.78336543  0.40776000  0.66718974    -0.14500
C988        C  0.78339136  0.37563264  0.66717523    -0.14500
C989        C  0.75127719  0.34318141  0.66692577     0.07700
C990        C  0.71919976  0.34358157  0.66677421    -0.14500
H991        H  0.69395035  0.37491316  0.66661155     0.11600
H992        H  0.80852329  0.43231991  0.66735253     0.11600
H993        H  0.80856286  0.37623579  0.66734486     0.11600
H994        H  0.69398888  0.31908017  0.66661566     0.11600
C995        C  0.78080885  0.12437285  0.66670632    -0.14500
C996        C  0.74875398  0.09191770  0.66690165     0.07700
C997        C  0.71661793  0.09225390  0.66720469    -0.14500
C998        C  0.71660291  0.12438670  0.66717496    -0.14500
C999        C  0.74872252  0.15683340  0.66688348     0.07700
C1000       C  0.78079413  0.15642296  0.66670356    -0.14500
H1001       H  0.80602895  0.12507847  0.66653221     0.11600
H1002       H  0.69145662  0.06769792  0.66740198     0.11600
H1003       H  0.69143519  0.12379124  0.66737048     0.11600
H1004       H  0.80600845  0.18092020  0.66651232     0.11600
C1005       C  0.96793763  0.37503917  0.66484291    -0.14500
C1006       C  0.99998475  0.40747330  0.66671187     0.07700
C1007       C  0.53205048  0.40708587  0.66858087    -0.14500
C1008       C  0.53206802  0.37499498  0.66854088    -0.14500
C1009       C  0.00001984  0.34256302  0.66667713     0.07700
C1010       C  0.96795392  0.34294830  0.66484823    -0.14500
H1011       H  0.94277556  0.37440277  0.66333487     0.11600
H1012       H  0.55720113  0.43159884  0.67010170     0.11600
H1013       H  0.55722738  0.37562592  0.67005942     0.11600
H1014       H  0.94280549  0.31843318  0.66331930     0.11600
C1015       C  0.53204962  0.12499486  0.66493227    -0.14500
C1016       C  0.00000226  0.09256053  0.66678601     0.07700
C1017       C  0.96793584  0.09294836  0.66863633    -0.14500
C1018       C  0.96791816  0.12503952  0.66858936    -0.14500
C1019       C  0.99996687  0.15747129  0.66673611     0.07700
C1020       C  0.53203323  0.15708565  0.66493088    -0.14500
H1021       H  0.55721227  0.12563147  0.66343771     0.11600
H1022       H  0.94278463  0.06843540  0.67014250     0.11600
H1023       H  0.94275828  0.12440884  0.67008937     0.11600
H1024       H  0.55718210  0.18160048  0.66341151     0.11600
C1025       C  0.71805422  0.23689496  0.85532695    -0.14500
C1026       C  0.74999920  0.25003341  0.87692177     0.07700
C1027       C  0.78193981  0.26315888  0.85532585    -0.14500
C1028       C  0.78194140  0.26292809  0.81241215    -0.14500
C1029       C  0.74999076  0.25000486  0.79045999     0.07700
C1030       C  0.71804404  0.23709758  0.81241231    -0.14500
H1031       H  0.69320594  0.22687756  0.87170480     0.11600
H1032       H  0.80679051  0.27318114  0.87170183     0.11600
H1033       H  0.80695651  0.27286232  0.79645966     0.11600
H1034       H  0.69302682  0.22715355  0.79645967     0.11600
C1035       C  0.72211269  0.47229280  0.85475220    -0.14500
C1036       C  0.74997808  0.00005113  0.87655647     0.07700
C1037       C  0.77783798  0.02780852  0.85475226    -0.14500
C1038       C  0.77806812  0.02757131  0.81185750    -0.14500
C1039       C  0.74997964  0.00003355  0.79004886     0.07700
C1040       C  0.72188467  0.47251231  0.81185879    -0.14500
H1041       H  0.70024882  0.45066728  0.87089599     0.11600
H1042       H  0.79970151  0.04943918  0.87089655     0.11600
H1043       H  0.79995824  0.04916122  0.79573133     0.11600
H1044       H  0.69999430  0.45091563  0.79573471     0.11600
C1045       C  0.90741799  0.28277279  0.00063807    -0.14500
C1046       C  0.90778619  0.25067272  0.99990479     0.07700
C1047       C  0.87534062  0.21860060  0.99913469    -0.14500
C1048       C  0.84325547  0.21858907  0.99909063    -0.14500
C1049       C  0.84284547  0.25064973  0.99986535     0.07700
C1050       C  0.87528955  0.28276064  0.00063820    -0.14500
H1051       H  0.93195590  0.30794356  0.00126763     0.11600
H1052       H  0.87468017  0.19340996  0.99851719     0.11600
H1053       H  0.81874793  0.19339227  0.99846921     0.11600
H1054       H  0.87589665  0.30792657  0.00124462     0.11600
C1055       C  0.62464478  0.28141912  0.99919880    -0.14500
C1056       C  0.59219680  0.24934752  0.99989790     0.07700
C1057       C  0.59256235  0.21724498  0.00054687    -0.14500
C1058       C  0.62468935  0.21725383  0.00054170    -0.14500
C1059       C  0.65713558  0.24936387  0.99984830     0.07700
C1060       C  0.65672887  0.28142744  0.99915016    -0.14500
H1061       H  0.62530794  0.30661176  0.99864544     0.11600
H1062       H  0.56802302  0.19207410  0.00111444     0.11600
H1063       H  0.62407946  0.19208585  0.00108346     0.11600
H1064       H  0.68123816  0.30662407  0.99858977     0.11600
C1065       C  0.97322782  0.22125591  0.85465957    -0.14500
C1066       C  0.99999955  0.25000554  0.87650129     0.07700
C1067       C  0.52677475  0.27876048  0.85467756    -0.14500
C1068       C  0.52701963  0.27855210  0.81177957    -0.14500
C1069       C  0.00000004  0.25002283  0.78998396     0.07700
C1070       C  0.97298383  0.22148169  0.81176155    -0.14500
H1071       H  0.95222340  0.19882564  0.87075313     0.11600
H1072       H  0.54777900  0.30118496  0.87078550     0.11600
H1073       H  0.54804859  0.30093775  0.79561506     0.11600
H1074       H  0.95195607  0.19910133  0.79558215     0.11600
C1075       C  0.84297774  0.46806913  0.99805647    -0.14500
C1076       C  0.84257247  0.00011652  0.99993584     0.07700
C1077       C  0.87500176  0.03217375  0.00180585    -0.14500
C1078       C  0.90711115  0.03218271  0.00174869    -0.14500
C1079       C  0.90750842  0.50013124  0.99988001     0.07700
C1080       C  0.87507956  0.46807666  0.99804855    -0.14500
H1081       H  0.81847003  0.44291195  0.99655760     0.11600
H1082       H  0.87561903  0.05732210  0.00333377     0.11600
H1083       H  0.93162635  0.05733212  0.00326644     0.11600
H1084       H  0.87445716  0.44292555  0.99651932     0.11600
C1085       C  0.59285539  0.46784668  0.00149859    -0.14500
C1086       C  0.59246572  0.49991027  0.99990391     0.07700
C1087       C  0.62490138  0.03197354  0.99833995    -0.14500
C1088       C  0.65700149  0.03197781  0.99834437    -0.14500
C1089       C  0.65739878  0.99991841  0.99995211     0.07700
C1090       C  0.62496298  0.46785218  0.00155088    -0.14500
H1091       H  0.56833518  0.44268894  0.00279555     0.11600
H1092       H  0.62553140  0.05713507  0.99703150     0.11600
H1093       H  0.68151460  0.05714283  0.99706389     0.11600
H1094       H  0.62433889  0.44269369  0.00285548     0.11600
C1095       C  0.52945107  0.52581192  0.85491872    -0.14500
C1096       C  0.00000565  0.49998688  0.87665771     0.07700
C1097       C  0.97057083  0.97414952  0.85490804    -0.14500
C1098       C  0.97038921  0.97441509  0.81201702    -0.14500
C1099       C  0.00001482  0.49998162  0.79017161     0.07700
C1100       C  0.52964229  0.52554054  0.81202784    -0.14500
H1101       H  0.55250887  0.54586918  0.87112773     0.11600
H1102       H  0.94750924  0.95409461  0.87110834     0.11600
H1103       H  0.94723925  0.95434860  0.79594087     0.11600
H1104       H  0.55279492  0.54560620  0.79596048     0.11600
C1105       C  0.72248320  0.25059311  0.47858883    -0.14500
C1106       C  0.75004616  0.25008329  0.45676287     0.07700
C1107       C  0.77761627  0.24958317  0.47858290    -0.14500
C1108       C  0.77785004  0.25004311  0.52149022    -0.14500
C1109       C  0.75004322  0.25006986  0.54331211     0.07700
C1110       C  0.72224670  0.25012020  0.52149550    -0.14500
H1111       H  0.70085463  0.25084446  0.46246072     0.11600
H1112       H  0.79924378  0.24933301  0.46244974     0.11600
H1113       H  0.79951136  0.24985937  0.53762780     0.11600
H1114       H  0.70058384  0.25029806  0.53763752     0.11600
C1115       C  0.75061829  0.27809437  0.18811612    -0.14500
C1116       C  0.74996173  0.24995400  0.20991526     0.07700
C1117       C  0.74930094  0.22181269  0.18810280    -0.14500
C1118       C  0.74883903  0.22159689  0.14519523    -0.14500
C1119       C  0.74996245  0.24996038  0.12336573     0.07700
C1120       C  0.75108009  0.27831643  0.14521153    -0.14500
H1121       H  0.75129335  0.30016295  0.20427097     0.11600
H1122       H  0.74862766  0.19974406  0.20424810     0.11600
H1123       H  0.74809705  0.19947433  0.12907134     0.11600
H1124       H  0.75182298  0.30044229  0.12910196     0.11600
C1125       C  0.77806215  0.50053048  0.47854886    -0.14500
C1126       C  0.74998872  0.00001612  0.45674460     0.07700
C1127       C  0.72191183  0.99949823  0.47854773    -0.14500
C1128       C  0.72167577  0.99902060  0.52144749    -0.14500
C1129       C  0.74998007  0.00000169  0.54326196     0.07700
C1130       C  0.77828960  0.50099355  0.52144795    -0.14500
H1131       H  0.80009269  0.50109084  0.46239536     0.11600
H1132       H  0.69988427  0.99894194  0.46239295     0.11600
H1133       H  0.69961747  0.99838867  0.53757433     0.11600
H1134       H  0.80034528  0.50162107  0.53757474     0.11600
C1135       C  0.75226943  0.47338133  0.14507878    -0.14500
C1136       C  0.74996958  0.99997915  0.12330034     0.07700
C1137       C  0.74766303  0.02656970  0.14509423    -0.14500
C1138       C  0.74719619  0.02630298  0.18799991    -0.14500
C1139       C  0.74996358  0.99997033  0.20985003     0.07700
C1140       C  0.75273004  0.47363886  0.18798629    -0.14500
H1141       H  0.75424223  0.45270630  0.12889617     0.11600
H1142       H  0.74569308  0.04724871  0.12892450     0.11600
H1143       H  0.74514613  0.04697874  0.20410099     0.11600
H1144       H  0.75477908  0.45296137  0.20407742     0.11600
C1145       C  0.47469814  0.25449632  0.47867780    -0.14500
C1146       C  0.49999257  0.24998191  0.45680490     0.07700
C1147       C  0.02528472  0.24546684  0.47867886    -0.14500
C1148       C  0.02555901  0.24592567  0.52158309    -0.14500
C1149       C  0.99999003  0.24998578  0.54333817     0.07700
C1150       C  0.47442160  0.25404156  0.52158049    -0.14500
H1151       H  0.45484017  0.25794321  0.46261320     0.11600
H1152       H  0.04514414  0.24202037  0.46261451     0.11600
H1153       H  0.04540715  0.24257164  0.53779300     0.11600
H1154       H  0.45457345  0.25739935  0.53778741     0.11600
C1155       C  0.87484131  0.15722781  0.33237641    -0.14500
C1156       C  0.90730817  0.15759892  0.33340404     0.07700
C1157       C  0.90693402  0.12514081  0.33454131    -0.14500
C1158       C  0.87484840  0.09305394  0.33456295    -0.14500
C1159       C  0.84238069  0.09266853  0.33347989     0.07700
C1160       C  0.84273789  0.12512379  0.33243807    -0.14500
H1161       H  0.87419265  0.18176036  0.33149621     0.11600
H1162       H  0.93146253  0.12447702  0.33540316     0.11600
H1163       H  0.87551881  0.06853282  0.33546031     0.11600
H1164       H  0.81819548  0.12576089  0.33157581     0.11600
C1165       C  0.59303490  0.37485428  0.33458735    -0.14500
C1166       C  0.59265902  0.34239620  0.33342022     0.07700
C1167       C  0.62512443  0.34276494  0.33236445    -0.14500
C1168       C  0.65722856  0.37486785  0.33243013    -0.14500
C1169       C  0.65758665  0.40732314  0.33350313     0.07700
C1170       C  0.62512065  0.40693955  0.33461225    -0.14500
H1171       H  0.56850740  0.37551931  0.33546988     0.11600
H1172       H  0.62577133  0.31823175  0.33145895     0.11600
H1173       H  0.68177022  0.37423013  0.33154449     0.11600
H1174       H  0.62445164  0.43146106  0.33553263     0.11600
C1175       C  0.49826442  0.22139405  0.18811862    -0.14500
C1176       C  0.49995596  0.25001474  0.20991334     0.07700
C1177       C  0.00164217  0.27863409  0.18812771    -0.14500
C1178       C  0.00211493  0.27885416  0.14522638    -0.14500
C1179       C  0.49996627  0.25001829  0.12339077     0.07700
C1180       C  0.49780233  0.22117798  0.14521954    -0.14500
H1181       H  0.49677523  0.19894397  0.20428838     0.11600
H1182       H  0.00312782  0.30108256  0.20430540     0.11600
H1183       H  0.00367710  0.30134664  0.12912391     0.11600
H1184       H  0.49624350  0.19868556  0.12911289     0.11600
C1185       C  0.97240158  0.50048422  0.47860088    -0.14500
C1186       C  0.99998209  0.50000005  0.45678406     0.07700
C1187       C  0.52755924  0.99951926  0.47860926    -0.14500
C1188       C  0.52779332  0.99999291  0.52151138    -0.14500
C1189       C  0.99998043  0.00001569  0.54331844     0.07700
C1190       C  0.97216590  0.50002634  0.52150349    -0.14500
H1191       H  0.95076413  0.50071456  0.46246634     0.11600
H1192       H  0.54919802  0.99928464  0.46248192     0.11600
H1193       H  0.54946343  0.99983182  0.53765722     0.11600
H1194       H  0.95049497  0.50019221  0.53764283     0.11600
C1195       C  0.87498200  0.34294669  0.33361158    -0.14500
C1196       C  0.84250745  0.34257124  0.33342852     0.07700
C1197       C  0.84286235  0.37503355  0.33334865    -0.14500
C1198       C  0.87495649  0.40713207  0.33335129    -0.14500
C1199       C  0.90743113  0.40750434  0.33347515     0.07700
C1200       C  0.90707274  0.37504181  0.33365924    -0.14500
H1201       H  0.87565156  0.31841618  0.33373079     0.11600
H1202       H  0.81831952  0.37568588  0.33322552     0.11600
H1203       H  0.87429092  0.43166463  0.33325301     0.11600
H1204       H  0.93161295  0.37438484  0.33378418     0.11600
C1205       C  0.65712793  0.12498434  0.33343564    -0.14500
C1206       C  0.65748738  0.15744875  0.33350526     0.07700
C1207       C  0.62501471  0.15707778  0.33365908    -0.14500
C1208       C  0.59292147  0.12498518  0.33368785    -0.14500
C1209       C  0.59255840  0.09252056  0.33351466     0.07700
C1210       C  0.62503115  0.09288829  0.33341886    -0.14500
H1211       H  0.68166899  0.12432861  0.33333146     0.11600
H1212       H  0.62434849  0.18161003  0.33376531     0.11600
H1213       H  0.56838296  0.12564567  0.33378832     0.11600
H1214       H  0.62569322  0.06835376  0.33332841     0.11600
C1215       C  0.99969049  0.47206816  0.18807478    -0.14500
C1216       C  0.99999482  0.50003252  0.20990307     0.07700
C1217       C  0.50029861  0.02800229  0.18809439    -0.14500
C1218       C  0.50076475  0.02823434  0.14518622    -0.14500
C1219       C  0.99999218  0.50004130  0.12334927     0.07700
C1220       C  0.99922255  0.47184560  0.14516801    -0.14500
H1221       H  0.99929974  0.45012647  0.20420992     0.11600
H1222       H  0.50068932  0.04994026  0.20424598     0.11600
H1223       H  0.50122590  0.05021721  0.12906470     0.11600
H1224       H  0.99876046  0.44986498  0.12903233     0.11600
O1225       O  0.97076973  0.94127811  0.33416721    -0.75600
O1226       O  0.55874580  0.52918584  0.33255404    -0.75600
O1227       O  0.51553093  0.98598156  0.39211938    -0.75700
O1228       O  0.51398739  0.98445031  0.27455565    -0.75700
O1229       O  0.98599838  0.51559325  0.27456963    -0.72000
O1230       O  0.98445086  0.51403423  0.39212785    -0.75600
O1231       O  0.52921796  0.55875036  0.33419847    -0.75600
O1232       O  0.94123985  0.97084084  0.33254539    -0.75700
Ni1233     Ni  0.51581120  0.98417093  0.33334268     1.25400
Ni1234     Ni  0.98417424  0.51585762  0.33335508     1.25400
C1235       C  0.94144954  0.94151269  0.33339244     0.86600
C1236       C  0.55853774  0.55851436  0.33341767     0.86500
C1237       C  0.99998845  0.00000485  0.41149333     0.86600
C1238       C  0.49999379  0.00002508  0.25519346     0.86700
O1239       O  0.97063296  0.69126864  0.33403647    -0.75600
O1240       O  0.55874209  0.77904538  0.33250835    -0.75600
O1241       O  0.51537287  0.73581025  0.39203693    -0.75700
O1242       O  0.51392417  0.73439577  0.27449227    -0.75700
O1243       O  0.98601827  0.76562766  0.27452122    -0.75600
O1244       O  0.98461202  0.76417230  0.39206087    -0.75600
O1245       O  0.52933439  0.80873078  0.33407528    -0.75600
O1246       O  0.94122291  0.72095251  0.33252617    -0.75700
Ni1247     Ni  0.51572149  0.73407851  0.33326258     1.25400
Ni1248     Ni  0.98424373  0.76592232  0.33329262     1.25400
C1249       C  0.94135391  0.69158175  0.33331147     0.86600
C1250       C  0.55861250  0.80841598  0.33332406     0.86500
C1251       C  0.49999377  0.74998827  0.41144904     0.86600
C1252       C  0.49996714  0.75001391  0.25515755     0.86700
O1253       O  0.76417701  0.98461842  0.27457669    -0.75600
O1254       O  0.76554891  0.98600088  0.39212801    -0.75600
O1255       O  0.72094172  0.94123683  0.33407777    -0.75700
O1256       O  0.80871755  0.52934989  0.33267905    -0.75700
O1257       O  0.77902409  0.55875403  0.33405847    -0.75600
O1258       O  0.69124748  0.97064014  0.33269613    -0.75600
O1259       O  0.73442879  0.51401877  0.39212581    -0.75600
O1260       O  0.73576793  0.51534077  0.27457731    -0.75700
Ni1261     Ni  0.76590220  0.98425307  0.33336022     1.25400
Ni1262     Ni  0.73406172  0.51573716  0.33335878     1.25400
C1263       C  0.74996868  0.49997487  0.25518630     0.86600
C1264       C  0.74998957  0.50001273  0.41148358     0.86500
C1265       C  0.69156634  0.94136676  0.33342508     0.86600
C1266       C  0.80839972  0.55862398  0.33340388     0.86700
O1267       O  0.76400397  0.73443142  0.27455315    -0.75600
O1268       O  0.76557531  0.73603324  0.39210429    -0.75600
O1269       O  0.72083035  0.69126193  0.33417465    -0.75700
O1270       O  0.80874189  0.77923732  0.33251331    -0.75700
O1271       O  0.77916641  0.80875580  0.33410440    -0.75600
O1272       O  0.69125567  0.72078057  0.33256367    -0.75600
O1273       O  0.73446753  0.76405723  0.39209465    -0.75600
O1274       O  0.73594982  0.76551486  0.27454601    -0.75700
Ni1275     Ni  0.76584384  0.73419081  0.33333187     1.25400
Ni1276     Ni  0.73415382  0.76582654  0.33332157     1.25400
C1277       C  0.74997028  0.74996380  0.25518886     0.86600
C1278       C  0.75003051  0.75005851  0.41146933     0.86500
C1279       C  0.69149539  0.69146718  0.33340882     0.86600
C1280       C  0.80850137  0.80855102  0.33333853     0.86700
O1281       O  0.52913583  0.97041566  0.99912971    -0.75600
O1282       O  0.94125291  0.97055419  0.00067406    -0.75600
O1283       O  0.98438009  0.97044221  0.94116629    -0.75700
O1284       O  0.98592919  0.97048079  0.05868294    -0.75700
O1285       O  0.51404295  0.52959092  0.05867904    -0.75600
O1286       O  0.51559910  0.52956849  0.94115695    -0.75600
O1287       O  0.97083851  0.52962801  0.99910597    -0.75600
O1288       O  0.55872188  0.52948966  0.00069022    -0.75700
Ni1289     Ni  0.98412330  0.96836662  0.99991551     1.25400
Ni1290     Ni  0.51585130  0.53167672  0.99990855     1.25400
C1291       C  0.55846785  0.99993349  0.99990294     0.86600
C1292       C  0.94150683  0.00010997  0.99988039     0.86500
C1293       C  0.99999417  0.00000008  0.92184136     0.86600
C1294       C  0.99998715  0.00003877  0.07805169     0.86700
O1295       O  0.55866514  0.77913091  0.00061270    -0.75600
O1296       O  0.97113060  0.77996549  0.99928007    -0.75600
O1297       O  0.51427559  0.77957661  0.05871334    -0.75700
O1298       O  0.51556341  0.77955449  0.94118546    -0.75700
O1299       O  0.98442193  0.72045684  0.94117974    -0.75600
O1300       O  0.98569864  0.72045946  0.05870822    -0.75600
O1301       O  0.94131776  0.72089154  0.00060015    -0.75600
O1302       O  0.52885148  0.72005703  0.99928248    -0.75700
Ni1303     Ni  0.51597828  0.78166056  0.99994864     1.25400
Ni1304     Ni  0.98400364  0.71836257  0.99994373     1.25400
C1305       C  0.55825850  0.74949461  0.99993711     0.86600
C1306       C  0.94172428  0.75052750  0.99993313     0.86500
C1307       C  0.49998096  0.75001896  0.07808571     0.86600
C1308       C  0.99999444  0.75000486  0.92180693     0.86700
O1309       O  0.72071347  0.52949125  0.99900289    -0.75600
O1310       O  0.80871926  0.52960524  0.00090493    -0.75600
O1311       O  0.76559261  0.52958949  0.94119349    -0.75700
O1312       O  0.76382882  0.52955055  0.05872368    -0.75700
O1313       O  0.73613140  0.97044250  0.05869091    -0.75600
O1314       O  0.73438464  0.97048338  0.94116247    -0.75600
O1315       O  0.77925730  0.97054215  0.99895267    -0.75600
O1316       O  0.69125030  0.97042682  0.00088230    -0.75700
Ni1317     Ni  0.76576765  0.53166736  0.99995681     1.25400
Ni1318     Ni  0.73420242  0.96836544  0.99992051     1.25400
C1319       C  0.69142336  0.49994296  0.99994625     0.86600
C1320       C  0.80854696  0.50009008  0.99993125     0.86500
C1321       C  0.74998614  0.50004202  0.92181941     0.86600
C1322       C  0.74997767  0.49999070  0.07805452     0.86700
O1323       O  0.72044759  0.77914156  0.99899810    -0.75600
O1324       O  0.80878948  0.77993581  0.00082279    -0.75600
O1325       O  0.76553487  0.77961051  0.94114059    -0.75700
O1326       O  0.76378133  0.77952469  0.05869258    -0.75700
O1327       O  0.73617110  0.72043629  0.05865887    -0.75600
O1328       O  0.73446471  0.72043242  0.94111049    -0.75600
O1329       O  0.77953311  0.72086757  0.99897013    -0.75600
O1330       O  0.69118846  0.72007219  0.00078305    -0.75700
Ni1331     Ni  0.76566937  0.78166402  0.99991694     1.25400
Ni1332     Ni  0.73430874  0.71834153  0.99988139     1.25400
C1333       C  0.69122264  0.74951437  0.99987520     0.86600
C1334       C  0.80875706  0.75049536  0.99988509     0.86500
C1335       C  0.75000044  0.75002629  0.92190028     0.86600
C1336       C  0.74997233  0.74997388  0.07805420     0.86700
O1337       O  0.52952143  0.97078140  0.66748229    -0.75600
O1338       O  0.52954481  0.55874430  0.66595888    -0.75600
O1339       O  0.52955841  0.51544396  0.72546149    -0.75700
O1340       O  0.52954520  0.51403418  0.60794938    -0.75700
O1341       O  0.97042538  0.98601583  0.60795569    -0.75600
O1342       O  0.97045149  0.98456565  0.72546890    -0.75600
O1343       O  0.97046680  0.52925143  0.66754033    -0.75600
O1344       O  0.97044287  0.94128921  0.66591578    -0.75700
Ni1345     Ni  0.53164748  0.51580794  0.66671086     1.25400
Ni1346     Ni  0.96834143  0.98422485  0.66671892     1.25400
C1347       C  0.99997850  0.94148284  0.66670409     0.86600
C1348       C  0.00000915  0.55855054  0.66676505     0.86500
C1349       C  0.00000812  0.49999692  0.74485049     0.86600
C1350       C  0.99998313  0.50002395  0.58859181     0.86700
O1351       O  0.52950931  0.72077808  0.66750208    -0.75600
O1352       O  0.52955895  0.80875141  0.66579624    -0.75600
O1353       O  0.52956049  0.76560359  0.72540011    -0.75700
O1354       O  0.52955804  0.76391176  0.60787232    -0.75700
O1355       O  0.97042593  0.73609064  0.60787137    -0.75600
O1356       O  0.97043447  0.73446014  0.72539992    -0.75600
O1357       O  0.97047831  0.77925694  0.66747476    -0.75600
O1358       O  0.97042850  0.69128299  0.66582304    -0.75700
Ni1359     Ni  0.53165492  0.76581652  0.66664000     1.25400
Ni1360     Ni  0.96833356  0.73421832  0.66663969     1.25400
C1361       C  0.99996389  0.69147949  0.66668453     0.86600
C1362       C  0.00002331  0.80855513  0.66664686     0.86500
C1363       C  0.99999840  0.75003115  0.74474564     0.86600
C1364       C  0.99999140  0.74999568  0.58854333     0.86700
O1365       O  0.71968631  0.52856206  0.66746038    -0.75600
O1366       O  0.72120438  0.94137810  0.66593458    -0.75600
O1367       O  0.72043510  0.98422678  0.72541734    -0.75700
O1368       O  0.72041192  0.98565186  0.60790692    -0.75700
O1369       O  0.77954656  0.51433535  0.60790960    -0.75600
O1370       O  0.77953206  0.51579037  0.72542133    -0.75600
O1371       O  0.78028062  0.97143946  0.66746487    -0.75600
O1372       O  0.77876265  0.55861922  0.66593405    -0.75700
Ni1373     Ni  0.71832886  0.98386978  0.66667077     1.25400
Ni1374     Ni  0.78163567  0.51612938  0.66667346     1.25400
C1375       C  0.74904019  0.55804838  0.66675766     0.86600
C1376       C  0.75092880  0.94195177  0.66676195     0.86500
C1377       C  0.74998307  0.50001593  0.74477866     0.86600
C1378       C  0.74997899  0.49999538  0.58854384     0.86700
O1379       O  0.71967383  0.69120873  0.66647807    -0.75600
O1380       O  0.72125332  0.77994065  0.66704997    -0.75600
O1381       O  0.72046565  0.73601404  0.60796050    -0.75700
O1382       O  0.72044980  0.73545065  0.72554206    -0.75700
O1383       O  0.77953890  0.76454570  0.72555756    -0.75600
O1384       O  0.77958385  0.76404770  0.60798259    -0.75600
O1385       O  0.78033788  0.80881470  0.66653176    -0.75600
O1386       O  0.77875802  0.72007816  0.66703503    -0.75700
Ni1387     Ni  0.71836163  0.73461355  0.66675135     1.25400
Ni1388     Ni  0.78165351  0.76541001  0.66677248     1.25400
C1389       C  0.74901069  0.69099074  0.66678937     0.86600
C1390       C  0.75099850  0.80902904  0.66682906     0.86500
C1391       C  0.75003023  0.75004209  0.58860270     0.86600
C1392       C  0.74999186  0.74999806  0.74499825     0.86700
C1393       C  0.71917417  0.87562635  0.66676206    -0.14500
C1394       C  0.75122362  0.90808626  0.66691458     0.07700
C1395       C  0.78336542  0.90775998  0.66718973    -0.14500
C1396       C  0.78339136  0.87563261  0.66717523    -0.14500
C1397       C  0.75127720  0.84318140  0.66692576     0.07700
C1398       C  0.71919976  0.84358155  0.66677422    -0.14500
H1399       H  0.69395033  0.87491312  0.66661164     0.11600
H1400       H  0.80852326  0.93231988  0.66735253     0.11600
H1401       H  0.80856287  0.87623577  0.66734487     0.11600
H1402       H  0.69398888  0.81908016  0.66661569     0.11600
C1403       C  0.78080887  0.62437285  0.66670638    -0.14500
C1404       C  0.74875400  0.59191770  0.66690165     0.07700
C1405       C  0.71661795  0.59225392  0.66720469    -0.14500
C1406       C  0.71660296  0.62438673  0.66717502    -0.14500
C1407       C  0.74872256  0.65683343  0.66688367     0.07700
C1408       C  0.78079417  0.65642300  0.66670382    -0.14500
H1409       H  0.80602897  0.62507848  0.66653219     0.11600
H1410       H  0.69145664  0.56769795  0.66740193     0.11600
H1411       H  0.69143524  0.62379128  0.66737043     0.11600
H1412       H  0.80600846  0.68092022  0.66651268     0.11600
C1413       C  0.96793760  0.87503914  0.66484292    -0.14500
C1414       C  0.99998475  0.90747328  0.66671181     0.07700
C1415       C  0.53205048  0.90708585  0.66858066    -0.14500
C1416       C  0.53206805  0.87499499  0.66854078    -0.14500
C1417       C  0.00001986  0.84256303  0.66667713     0.07700
C1418       C  0.96795394  0.84294830  0.66484827    -0.14500
H1419       H  0.94277557  0.87440272  0.66333495     0.11600
H1420       H  0.55720115  0.93159884  0.67010131     0.11600
H1421       H  0.55722743  0.87562596  0.67005930     0.11600
H1422       H  0.94280548  0.81843316  0.66331940     0.11600
C1423       C  0.53204965  0.62499489  0.66493227    -0.14500
C1424       C  0.00000229  0.59256057  0.66678595     0.07700
C1425       C  0.96793588  0.59294839  0.66863616    -0.14500
C1426       C  0.96791819  0.62503955  0.66858931    -0.14500
C1427       C  0.99996689  0.65747133  0.66673611     0.07700
C1428       C  0.53203326  0.65708569  0.66493088    -0.14500
H1429       H  0.55721231  0.62563151  0.66343771     0.11600
H1430       H  0.94278466  0.56843543  0.67014222     0.11600
H1431       H  0.94275832  0.62440886  0.67008937     0.11600
H1432       H  0.55718214  0.68160052  0.66341151     0.11600
C1433       C  0.71805430  0.73689538  0.85532698    -0.14500
C1434       C  0.74999930  0.75003349  0.87692177     0.07700
C1435       C  0.78193981  0.76315859  0.85532583    -0.14500
C1436       C  0.78194145  0.76292787  0.81241212    -0.14500
C1437       C  0.74999077  0.75000491  0.79046000     0.07700
C1438       C  0.71804415  0.73709797  0.81241233    -0.14500
H1439       H  0.69320614  0.72687830  0.87170482     0.11600
H1440       H  0.80679056  0.77318056  0.87170181     0.11600
H1441       H  0.80695640  0.77286180  0.79645965     0.11600
H1442       H  0.69302689  0.72715412  0.79645969     0.11600
C1443       C  0.72211274  0.97229281  0.85475220    -0.14500
C1444       C  0.74997806  0.50005109  0.87655647     0.07700
C1445       C  0.77783801  0.52780845  0.85475227    -0.14500
C1446       C  0.77806811  0.52757128  0.81185751    -0.14500
C1447       C  0.74997964  0.50003354  0.79004886     0.07700
C1448       C  0.72188468  0.97251232  0.81185880    -0.14500
H1449       H  0.70024888  0.95066725  0.87089601     0.11600
H1450       H  0.79970156  0.54943907  0.87089656     0.11600
H1451       H  0.79995824  0.54916120  0.79573135     0.11600
H1452       H  0.69999431  0.95091562  0.79573474     0.11600
C1453       C  0.90741790  0.78277261  0.00063807    -0.14500
C1454       C  0.90778607  0.75067252  0.99990480     0.07700
C1455       C  0.87534050  0.71860043  0.99913469    -0.14500
C1456       C  0.84325535  0.71858890  0.99909063    -0.14500
C1457       C  0.84284539  0.75064959  0.99986535     0.07700
C1458       C  0.87528947  0.78276051  0.00063821    -0.14500
H1459       H  0.93195576  0.80794335  0.00126763     0.11600
H1460       H  0.87468005  0.69340975  0.99851719     0.11600
H1461       H  0.81874780  0.69339212  0.99846920     0.11600
H1462       H  0.87589662  0.80792641  0.00124462     0.11600
C1463       C  0.62464477  0.78141919  0.99919883    -0.14500
C1464       C  0.59219681  0.74934758  0.99989790     0.07700
C1465       C  0.59256239  0.71724506  0.00054686    -0.14500
C1466       C  0.62468942  0.71725392  0.00054164    -0.14500
C1467       C  0.65713563  0.74936399  0.99984817     0.07700
C1468       C  0.65672888  0.78142753  0.99915010    -0.14500
H1469       H  0.62530793  0.80661183  0.99864558     0.11600
H1470       H  0.56802309  0.69207416  0.00111447     0.11600
H1471       H  0.62407954  0.69208600  0.00108347     0.11600
H1472       H  0.68123814  0.80662419  0.99858980     0.11600
C1473       C  0.97322782  0.72125594  0.85465958    -0.14500
C1474       C  0.99999959  0.75000557  0.87650127     0.07700
C1475       C  0.52677479  0.77876046  0.85467755    -0.14500
C1476       C  0.52701965  0.77855208  0.81177955    -0.14500
C1477       C  0.00000006  0.75002282  0.78998396     0.07700
C1478       C  0.97298385  0.72148171  0.81176155    -0.14500
H1479       H  0.95222341  0.69882572  0.87075313     0.11600
H1480       H  0.54777902  0.80118487  0.87078548     0.11600
H1481       H  0.54804860  0.80093776  0.79561505     0.11600
H1482       H  0.95195607  0.69910134  0.79558216     0.11600
C1483       C  0.84297771  0.96806911  0.99805663    -0.14500
C1484       C  0.84257250  0.50011655  0.99993578     0.07700
C1485       C  0.87500178  0.53217377  0.00180585    -0.14500
C1486       C  0.90711116  0.53218272  0.00174869    -0.14500
C1487       C  0.90750843  0.00013124  0.99988002     0.07700
C1488       C  0.87507956  0.96807664  0.99804860    -0.14500
H1489       H  0.81847001  0.94291191  0.99655787     0.11600
H1490       H  0.87561907  0.55732213  0.00333381     0.11600
H1491       H  0.93162637  0.55733212  0.00326645     0.11600
H1492       H  0.87445718  0.94292558  0.99651933     0.11600
C1493       C  0.59285538  0.96784666  0.00149855    -0.14500
C1494       C  0.59246576  0.99991026  0.99990391     0.07700
C1495       C  0.62490134  0.53197354  0.99833991    -0.14500
C1496       C  0.65700146  0.53197786  0.99834437    -0.14500
C1497       C  0.65739878  0.49991845  0.99995211     0.07700
C1498       C  0.62496298  0.96785214  0.00155088    -0.14500
H1499       H  0.56833519  0.94268896  0.00279545     0.11600
H1500       H  0.62553132  0.55713509  0.99703140     0.11600
H1501       H  0.68151454  0.55714289  0.99706386     0.11600
H1502       H  0.62433885  0.94269364  0.00285546     0.11600
C1503       C  0.52945115  0.02581162  0.85491872    -0.14500
C1504       C  0.00000564  0.99998685  0.87665771     0.07700
C1505       C  0.97057099  0.47414934  0.85490804    -0.14500
C1506       C  0.97038933  0.47441493  0.81201702    -0.14500
C1507       C  0.00001481  0.99998157  0.79017161     0.07700
C1508       C  0.52964236  0.02554026  0.81202785    -0.14500
H1509       H  0.55250907  0.04586872  0.87112774     0.11600
H1510       H  0.94750954  0.45409424  0.87110832     0.11600
H1511       H  0.94723948  0.45434831  0.79594088     0.11600
H1512       H  0.55279508  0.04560573  0.79596048     0.11600
C1513       C  0.72248324  0.75059315  0.47858881    -0.14500
C1514       C  0.75004621  0.75008333  0.45676285     0.07700
C1515       C  0.77761628  0.74958316  0.47858288    -0.14500
C1516       C  0.77785001  0.75004300  0.52149021    -0.14500
C1517       C  0.75004322  0.75006983  0.54331210     0.07700
C1518       C  0.72224674  0.75012024  0.52149549    -0.14500
H1519       H  0.70085467  0.75084450  0.46246071     0.11600
H1520       H  0.79924383  0.74933304  0.46244972     0.11600
H1521       H  0.79951125  0.74985917  0.53762778     0.11600
H1522       H  0.70058390  0.75029813  0.53763751     0.11600
C1523       C  0.75061821  0.77809435  0.18811612    -0.14500
C1524       C  0.74996174  0.74995401  0.20991526     0.07700
C1525       C  0.74930099  0.72181274  0.18810278    -0.14500
C1526       C  0.74883906  0.72159693  0.14519523    -0.14500
C1527       C  0.74996243  0.74996039  0.12336573     0.07700
C1528       C  0.75108006  0.77831644  0.14521154    -0.14500
H1529       H  0.75129317  0.80016290  0.20427099     0.11600
H1530       H  0.74862773  0.69974412  0.20424808     0.11600
H1531       H  0.74809708  0.69947437  0.12907135     0.11600
H1532       H  0.75182296  0.80044234  0.12910195     0.11600
C1533       C  0.77806212  0.00053041  0.47854886    -0.14500
C1534       C  0.74998877  0.50001620  0.45674460     0.07700
C1535       C  0.72191189  0.49949834  0.47854773    -0.14500
C1536       C  0.72167579  0.49902062  0.52144749    -0.14500
C1537       C  0.74998007  0.50000169  0.54326196     0.07700
C1538       C  0.77828958  0.00099351  0.52144795    -0.14500
H1539       H  0.80009264  0.00109075  0.46239536     0.11600
H1540       H  0.69988436  0.49894211  0.46239296     0.11600
H1541       H  0.69961744  0.49838861  0.53757433     0.11600
H1542       H  0.80034525  0.00162101  0.53757473     0.11600
C1543       C  0.75226951  0.97338138  0.14507878    -0.14500
C1544       C  0.74996963  0.49997917  0.12330034     0.07700
C1545       C  0.74766321  0.52656980  0.14509424    -0.14500
C1546       C  0.74719629  0.52630302  0.18799992    -0.14500
C1547       C  0.74996355  0.49997030  0.20985004     0.07700
C1548       C  0.75273013  0.97363893  0.18798628    -0.14500
H1549       H  0.75424241  0.95270643  0.12889618     0.11600
H1550       H  0.74569343  0.54724891  0.12892454     0.11600
H1551       H  0.74514628  0.54697882  0.20410097     0.11600
H1552       H  0.75477928  0.95296149  0.20407742     0.11600
C1553       C  0.47469804  0.75449612  0.47867779    -0.14500
C1554       C  0.49999258  0.74998190  0.45680490     0.07700
C1555       C  0.02528489  0.74546712  0.47867888    -0.14500
C1556       C  0.02555916  0.74592597  0.52158310    -0.14500
C1557       C  0.99999003  0.74998582  0.54333817     0.07700
C1558       C  0.47442149  0.75404136  0.52158050    -0.14500
H1559       H  0.45484000  0.75794290  0.46261320     0.11600
H1560       H  0.04514443  0.74202082  0.46261454     0.11600
H1561       H  0.04540744  0.74257214  0.53779304     0.11600
H1562       H  0.45457331  0.75739903  0.53778739     0.11600
C1563       C  0.87484131  0.65722778  0.33237647    -0.14500
C1564       C  0.90730818  0.65759891  0.33340405     0.07700
C1565       C  0.90693404  0.62514082  0.33454131    -0.14500
C1566       C  0.87484843  0.59305393  0.33456295    -0.14500
C1567       C  0.84238070  0.59266852  0.33347995     0.07700
C1568       C  0.84273789  0.62512377  0.33243823    -0.14500
H1569       H  0.87419262  0.68176033  0.33149621     0.11600
H1570       H  0.93146256  0.62447703  0.33540315     0.11600
H1571       H  0.87551887  0.56853286  0.33546026     0.11600
H1572       H  0.81819548  0.62576087  0.33157607     0.11600
C1573       C  0.59303491  0.87485426  0.33458735    -0.14500
C1574       C  0.59265904  0.84239619  0.33342022     0.07700
C1575       C  0.62512447  0.84276494  0.33236454    -0.14500
C1576       C  0.65722858  0.87486786  0.33243030    -0.14500
C1577       C  0.65758666  0.90732314  0.33350318     0.07700
C1578       C  0.62512065  0.90693952  0.33461225    -0.14500
H1579       H  0.56850741  0.87551930  0.33546987     0.11600
H1580       H  0.62577139  0.81823175  0.33145904     0.11600
H1581       H  0.68177026  0.87423016  0.33154479     0.11600
H1582       H  0.62445159  0.93146102  0.33553259     0.11600
C1583       C  0.49826441  0.72139407  0.18811861    -0.14500
C1584       C  0.49995598  0.75001474  0.20991334     0.07700
C1585       C  0.00164221  0.77863412  0.18812772    -0.14500
C1586       C  0.00211497  0.77885420  0.14522638    -0.14500
C1587       C  0.49996627  0.75001834  0.12339076     0.07700
C1588       C  0.49780222  0.72117795  0.14521950    -0.14500
H1589       H  0.49677525  0.69894397  0.20428835     0.11600
H1590       H  0.00312788  0.80108260  0.20430542     0.11600
H1591       H  0.00367715  0.80134669  0.12912391     0.11600
H1592       H  0.49624330  0.69868555  0.12911289     0.11600
C1593       C  0.97240161  0.00048419  0.47860088    -0.14500
C1594       C  0.99998214  0.00000009  0.45678406     0.07700
C1595       C  0.52755913  0.49951900  0.47860926    -0.14500
C1596       C  0.52779320  0.49999267  0.52151140    -0.14500
C1597       C  0.99998040  0.50001572  0.54331845     0.07700
C1598       C  0.97216589  0.00002630  0.52150350    -0.14500
H1599       H  0.95076411  0.00071447  0.46246633     0.11600
H1600       H  0.54919781  0.49928425  0.46248195     0.11600
H1601       H  0.54946324  0.49983143  0.53765723     0.11600
H1602       H  0.95049500  0.00019214  0.53764281     0.11600
C1603       C  0.87498203  0.84294672  0.33361158    -0.14500
C1604       C  0.84250746  0.84257125  0.33342852     0.07700
C1605       C  0.84286237  0.87503357  0.33334865    -0.14500
C1606       C  0.87495651  0.90713209  0.33335129    -0.14500
C1607       C  0.90743116  0.90750437  0.33347514     0.07700
C1608       C  0.90707277  0.87504184  0.33365925    -0.14500
H1609       H  0.87565159  0.81841622  0.33373079     0.11600
H1610       H  0.81831953  0.87568589  0.33322552     0.11600
H1611       H  0.87429096  0.93166466  0.33325301     0.11600
H1612       H  0.93161298  0.87438487  0.33378417     0.11600
C1613       C  0.65712795  0.62498432  0.33343564    -0.14500
C1614       C  0.65748740  0.65744874  0.33350527     0.07700
C1615       C  0.62501473  0.65707778  0.33365908    -0.14500
C1616       C  0.59292148  0.62498518  0.33368785    -0.14500
C1617       C  0.59255841  0.59252056  0.33351466     0.07700
C1618       C  0.62503115  0.59288828  0.33341886    -0.14500
H1619       H  0.68166899  0.62432858  0.33333146     0.11600
H1620       H  0.62434852  0.68161004  0.33376531     0.11600
H1621       H  0.56838298  0.62564568  0.33378832     0.11600
H1622       H  0.62569322  0.56835375  0.33332841     0.11600
C1623       C  0.99969050  0.97206812  0.18807477    -0.14500
C1624       C  0.99999493  0.00003254  0.20990307     0.07700
C1625       C  0.50029865  0.52800235  0.18809443    -0.14500
C1626       C  0.50076476  0.52823441  0.14518626    -0.14500
C1627       C  0.99999208  0.00004122  0.12334925     0.07700
C1628       C  0.99922236  0.97184546  0.14516799    -0.14500
H1629       H  0.99929979  0.95012645  0.20420990     0.11600
H1630       H  0.50068934  0.54994030  0.20424603     0.11600
H1631       H  0.50122586  0.55021723  0.12906475     0.11600
H1632       H  0.99876012  0.94986479  0.12903231     0.11600
loop_ 
_geom_bond_atom_site_label_1 
_geom_bond_atom_site_label_2 
_geom_bond_distance 
_geom_bond_site_symmetry_2 
_ccdc_geom_bond_type 
O1           C11   1.282       .  A
O1         Ni825   1.917       .  S
O2           C12   1.282       .  A
O2         Ni417   1.917   1_545  S
O3          C829   1.281   1_455  A
O3           Ni9   1.917       .  S
O4           C14   1.281   1_455  A
O4           Ni9   1.917       .  S
O5         C1238   1.281       .  A
O5          Ni10   1.917       .  S
O6          C421   1.281       .  A
O6          Ni10   1.917       .  S
O7           C12   1.282       .  A
O7         Ni826   1.917   1_455  S
O8           C11   1.282       .  A
O8         Ni418   1.917       .  S
Ni9         O817   1.917   1_455  S
Ni9         O410   1.917       .  S
Ni9       Ni1234   2.387   1_455  S
Ni10        O823   1.917       .  S
Ni10        O416   1.917   1_545  S
Ni10      Ni1233   2.387   1_545  S
C11         C383   1.481       .  S
C12         C393   1.481       .  S
C13         O819   1.281       .  A
C13         O414   1.281       .  A
C13         C370   1.476       .  S
C14        O1229   1.281       .  A
C14        C1216   1.476       .  S
O15          C25   1.282       .  A
O15        Ni839   1.916       .  S
O16          C26   1.282       .  A
O16         Ni23   1.918       .  S
O17          C27   1.281   1_455  A
O17         Ni23   1.917       .  S
O18          C28   1.281   1_455  A
O18         Ni23   1.917       .  S
O19         C844   1.281       .  A
O19         Ni24   1.917       .  S
O20         C843   1.281       .  A
O20         Ni24   1.917       .  S
O21          C26   1.282       .  A
O21        Ni840   1.916   1_455  S
O22          C25   1.282       .  A
O22         Ni24   1.918       .  S
Ni23        O831   1.916   1_455  S
Ni23       Ni840   2.387   1_455  S
Ni24        O837   1.916       .  S
Ni24       Ni839   2.387       .  S
C25         C340   1.481       .  S
C26         C350   1.481       .  S
C27         O836   1.281       .  A
C27         C330   1.478       .  S
C28         O835   1.281       .  A
C28         C360   1.474       .  S
O29         C447   1.281       .  A
O29         Ni37   1.917       .  S
O30         C448   1.281       .  A
O30         Ni37   1.917       .  S
O31          C41   1.282       .  A
O31         Ni37   1.917       .  S
O32          C42   1.282       .  A
O32        Ni445   1.916   1_545  S
O33          C42   1.282       .  A
O33         Ni38   1.917       .  S
O34          C41   1.282       .  A
O34        Ni446   1.916       .  S
O35          C40   1.281       .  A
O35         Ni38   1.917       .  S
O36          C39   1.281   1_545  A
O36         Ni38   1.917       .  S
Ni37        O440   1.916       .  S
Ni37       Ni446   2.387       .  S
Ni38        O442   1.916   1_545  S
Ni38       Ni445   2.387   1_545  S
C39         O437   1.281       .  A
C39         C323   1.477       .  S
C40         O438   1.281   1_545  A
C40         C310   1.475       .  S
C41         C353   1.481       .  S
C42         C343   1.481       .  S
O43          C53   1.281       .  A
O43         Ni51   1.917       .  S
O44          C54   1.281       .  A
O44         Ni51   1.917       .  S
O45          C55   1.282       .  A
O45         Ni51   1.917       .  S
O46          C56   1.282       .  A
O46         Ni51   1.917       .  S
O47          C56   1.282       .  A
O47         Ni52   1.917       .  S
O48          C55   1.282       .  A
O48         Ni52   1.917       .  S
O49          C54   1.281       .  A
O49         Ni52   1.917       .  S
O50          C53   1.281       .  A
O50         Ni52   1.917       .  S
Ni51        Ni52   2.387       .  S
C53         C300   1.475       .  S
C54         C290   1.476       .  S
C55         C390   1.481       .  S
C56         C380   1.481       .  S
O57          C67   1.282       .  A
O57        Ni881   1.917   1_455  S
O58          C68   1.282   1_554  A
O58         Ni65   1.916   1_554  S
O59          C69   1.281       .  A
O59         Ni65   1.916       .  S
O60          C70   1.281       .  A
O60         Ni65   1.917   1_554  S
O61        C1294   1.281   1_455  A
O61         Ni66   1.917   1_554  S
O62        C1293   1.281   1_455  A
O62         Ni66   1.916       .  S
O63         C476   1.282       .  A
O63        Ni882   1.917       .  S
O64         C475   1.282   1_544  A
O64         Ni66   1.916   1_554  S
Ni65        O873   1.917       .  S
Ni65      Ni1290   2.388       .  S
Ni66        O879   1.917   1_455  S
Ni66      Ni1289   2.388   1_445  S
C67         O472   1.282   1_556  A
C67         C270   1.481       .  S
C68         O471   1.282       .  A
C68         C263   1.481       .  S
C69        O1286   1.281       .  A
C69         C280   1.472       .  S
C70        O1285   1.281       .  A
C70         C403   1.476       .  S
O71          C81   1.282   1_554  A
O71         Ni79   1.916   1_554  S
O72          C82   1.282       .  A
O72        Ni895   1.917       .  S
O73          C83   1.281   1_455  A
O73         Ni79   1.916   1_554  S
O74         C900   1.281   1_455  A
O74         Ni79   1.916       .  S
O75          C84   1.281       .  A
O75         Ni80   1.916       .  S
O76         C899   1.281       .  A
O76         Ni80   1.916   1_554  S
O77          C82   1.282   1_554  A
O77         Ni80   1.916   1_554  S
O78          C81   1.282       .  A
O78        Ni896   1.917   1_455  S
Ni79        O888   1.917   1_455  S
Ni79       Ni896   2.387   1_455  S
Ni80        O894   1.917       .  S
Ni80       Ni895   2.387       .  S
C81         C240   1.481       .  S
C82         C230   1.481       .  S
C83         O892   1.281       .  A
C83         C363   1.476       .  S
C84         O890   1.281       .  A
C84         C250   1.476       .  S
O85          C95   1.282   1_545  A
O85         Ni93   1.916       .  S
O86          C96   1.282   1_554  A
O86         Ni93   1.917   1_554  S
O87          C97   1.281       .  A
O87         Ni93   1.917       .  S
O88          C98   1.281   1_545  A
O88         Ni93   1.917   1_554  S
O89         C506   1.281       .  A
O89         Ni94   1.917   1_554  S
O90         C505   1.281       .  A
O90         Ni94   1.916       .  S
O91         C504   1.282       .  A
O91         Ni94   1.916       .  S
O92         C503   1.282   1_554  A
O92         Ni94   1.917   1_554  S
Ni93       Ni502   2.387   1_545  S
Ni94       Ni501   2.387       .  S
C95         O500   1.282   1_556  A
C95         C273   1.481       .  S
C96         O499   1.282   1_545  A
C96         C260   1.481       .  S
C97         O498   1.281   1_545  A
C97         C220   1.475       .  S
C98         O497   1.281       .  A
C98         C320   1.474       .  S
O99         C109   1.282       .  A
O99        Ni107   1.916       .  S
O100        C110   1.281   1_554  A
O100       Ni107   1.916   1_554  S
O101        C111   1.280       .  A
O101       Ni107   1.917       .  S
O102        C112   1.281       .  A
O102       Ni107   1.917   1_554  S
O103        C112   1.281       .  A
O103       Ni108   1.917   1_554  S
O104        C111   1.280       .  A
O104       Ni108   1.917       .  S
O105        C110   1.282       .  A
O105       Ni108   1.916       .  S
O106        C109   1.282   1_554  A
O106       Ni108   1.916   1_554  S
Ni107      Ni108   2.388       .  S
C109        C243   1.481       .  S
C110        C233   1.481       .  S
C111        C210   1.465       .  S
C112        C303   1.476       .  S
O113        C939   1.282   1_455  A
O113       Ni529   1.916       .  S
O114        C940   1.282       .  A
O114       Ni121   1.917       .  S
O115        C941   1.281   1_545  A
O115       Ni121   1.916       .  S
O116        C942   1.281   1_455  A
O116       Ni121   1.916       .  S
O117        C534   1.281       .  A
O117       Ni122   1.916       .  S
O118        C533   1.281       .  A
O118       Ni122   1.916       .  S
O119        C124   1.282       .  A
O119       Ni530   1.916   1_545  S
O120        C123   1.282       .  A
O120       Ni122   1.917       .  S
Ni121       O521   1.916   1_545  S
Ni121     Ni1346   2.387   1_445  S
Ni122       O527   1.916       .  S
Ni122     Ni1345   2.387       .  S
C123        O929   1.282       .  A
C123        C190   1.481       .  S
C124        O930   1.282       .  A
C124        C200   1.481       .  S
C125        O931   1.281   1_565  A
C125        O526   1.281       .  A
C125        C691   1.477       .  S
C126        O932   1.281       .  A
C126        O525   1.281   1_545  A
C126        C373   1.475       .  S
O127        C953   1.282   1_455  A
O127       Ni135   1.916       .  S
O128        C954   1.282       .  A
O128       Ni135   1.917       .  S
O129        C955   1.281   1_455  A
O129       Ni135   1.916       .  S
O130        C956   1.281   1_455  A
O130       Ni135   1.917       .  S
O131        C140   1.281       .  A
O131       Ni136   1.917       .  S
O132        C139   1.281       .  A
O132       Ni136   1.916       .  S
O133        C138   1.282       .  A
O133       Ni136   1.916       .  S
O134        C137   1.282       .  A
O134       Ni136   1.917       .  S
Ni135      Ni952   2.388   1_455  S
Ni136      Ni951   2.388       .  S
C137        O943   1.282       .  A
C137        C203   1.481       .  S
C138        O944   1.282       .  A
C138        C193   1.481       .  S
C139        O945   1.281       .  A
C139        C253   1.474       .  S
C140        O946   1.281       .  A
C140        C333   1.473       .  S
O141        C151   1.282       .  A
O141       Ni557   1.917   1_545  S
O142        C152   1.282       .  A
O142       Ni149   1.916       .  S
O143        C561   1.281       .  A
O143       Ni149   1.916       .  S
O144        C562   1.281       .  A
O144       Ni149   1.916       .  S
O145        C154   1.281   1_545  A
O145       Ni150   1.916       .  S
O146        C153   1.281       .  A
O146       Ni150   1.916       .  S
O147        C152   1.282       .  A
O147       Ni558   1.917       .  S
O148        C151   1.282       .  A
O148       Ni150   1.916       .  S
Ni149       O549   1.917       .  S
Ni149      Ni558   2.387       .  S
Ni150       O555   1.917   1_545  S
Ni150      Ni557   2.387   1_545  S
C151        C180   1.481       .  S
C152        C170   1.481       .  S
C153        O551   1.281   1_545  A
C153        C223   1.475       .  S
C154        O552   1.281       .  A
C154        C313   1.475   1_565  S
O155        C165   1.282       .  A
O155       Ni163   1.919       .  S
O156        C166   1.281       .  A
O156       Ni163   1.914       .  S
O157        C167   1.281       .  A
O157       Ni163   1.917       .  S
O158        C168   1.282       .  A
O158       Ni163   1.917       .  S
O159        C168   1.282       .  A
O159       Ni164   1.917       .  S
O160        C167   1.281       .  A
O160       Ni164   1.917       .  S
O161        C166   1.282       .  A
O161       Ni164   1.919       .  S
O162        C165   1.281       .  A
O162       Ni164   1.914       .  S
Ni163      Ni164   2.387       .  S
C165        C183   1.481       .  S
C166        C173   1.481       .  S
C167        C293   1.476       .  S
C168        C213   1.481       .  S
C169        C170   1.405       .  A
C169        C174   1.396       .  A
C169        H175   1.083       .  S
C170        C171   1.406       .  A
C171        C172   1.399       .  A
C171        H176   1.083       .  S
C172        C173   1.406       .  A
C172        H177   1.083       .  S
C173        C174   1.405       .  A
C174        H178   1.083       .  S
C179        C180   1.405       .  A
C179        C184   1.396       .  A
C179        H185   1.083       .  S
C180        C181   1.406       .  A
C181        C182   1.399       .  A
C181        H186   1.083       .  S
C182        C183   1.406       .  A
C182        H187   1.083       .  S
C183        C184   1.405       .  A
C184        H188   1.083       .  S
C189        C190   1.406       .  A
C189        C194   1.398       .  A
C189        H195   1.083       .  S
C190       C1007   1.406       .  A
C191        C192   1.398       .  A
C191       C1006   1.406   1_455  A
C191        H196   1.083       .  S
C192       C1009   1.405       .  A
C192        H197   1.083       .  S
C193        C194   1.406       .  A
C193       C1008   1.406       .  A
C194        H198   1.083       .  S
C199        C204   1.398       .  A
C199       C1016   1.406       .  A
C199        H205   1.083       .  S
C200        C201   1.406       .  A
C200       C1015   1.406       .  A
C201        C202   1.398       .  A
C201        H206   1.083       .  S
C202        C203   1.406       .  A
C202        H207   1.083       .  S
C203       C1020   1.406       .  A
C204       C1019   1.406   1_455  A
C204        H208   1.083       .  S
C209        C210   1.400       .  A
C209        C214   1.398       .  A
C209        H215   1.083       .  S
C210        C211   1.400       .  A
C211        C212   1.398       .  A
C211        H216   1.083       .  S
C212        C213   1.407       .  A
C212        H217   1.083       .  S
C213        C214   1.407       .  A
C214        H218   1.083       .  S
C219        C224   1.398       .  A
C219        C628   1.404       .  A
C219        H225   1.083       .  S
C220        C221   1.404       .  A
C220        C627   1.404   1_545  A
C221        C222   1.398       .  A
C221        H226   1.083       .  S
C222        C223   1.404       .  A
C222        H227   1.083       .  S
C223        C632   1.404   1_545  A
C224        C631   1.404       .  A
C224        H228   1.083       .  S
C229        C230   1.406   1_554  A
C229        C234   1.398       .  A
C229        H235   1.083       .  S
C230        C231   1.405       .  A
C231        C232   1.397       .  A
C231        H236   1.083       .  S
C232        C233   1.405       .  A
C232        H237   1.083       .  S
C233        C234   1.406   1_556  A
C234        H238   1.083       .  S
C239        C240   1.405       .  A
C239        C244   1.397       .  A
C239        H245   1.083       .  S
C240        C241   1.406   1_556  A
C241        C242   1.398       .  A
C241        H246   1.083       .  S
C242        C243   1.406   1_554  A
C242        H247   1.083       .  S
C243        C244   1.405       .  A
C244        H248   1.083       .  S
C249        C250   1.405       .  A
C249        C254   1.398       .  A
C249        H255   1.083       .  S
C250       C1067   1.405       .  A
C251        C252   1.398       .  A
C251       C1066   1.405   1_455  A
C251        H256   1.083       .  S
C252       C1069   1.404       .  A
C252        H257   1.083       .  S
C253        C254   1.404       .  A
C253       C1068   1.404       .  A
C254        H258   1.083       .  S
C259        C264   1.397       .  A
C259        C668   1.406       .  A
C259        H265   1.083       .  S
C260        C261   1.406   1_556  A
C260        C667   1.406   1_545  A
C261        C262   1.398       .  A
C261        H266   1.083       .  S
C262        C671   1.406   1_554  A
C262        H267   1.083       .  S
C263        C264   1.406       .  A
C263        C670   1.406   1_556  A
C264        H268   1.083       .  S
C269        C270   1.406   1_554  A
C269        C274   1.398       .  A
C269        H275   1.083       .  S
C270        C679   1.406       .  A
C271        C272   1.397       .  A
C271        C678   1.406   1_545  A
C271        H276   1.083       .  S
C272        C273   1.406   1_545  A
C272        H277   1.083       .  S
C273        C682   1.406   1_556  A
C274        C681   1.406   1_554  A
C274        H278   1.083       .  S
C279        C284   1.398       .  A
C279       C1096   1.403       .  A
C279        H285   1.083       .  S
C280       C1095   1.403       .  A
C280        C689   1.403       .  A
C281        C282   1.398       .  A
C281        C688   1.403       .  A
C281        H286   1.083       .  S
C282        C691   1.405       .  A
C282        H287   1.083       .  S
C283        C533   1.477       .  S
C283        C690   1.405       .  A
C283       C1100   1.405       .  A
C284       C1099   1.405       .  A
C284        H288   1.083       .  S
C289        C290   1.404       .  A
C289        C294   1.398       .  A
C289        H295   1.083       .  S
C290        C291   1.404       .  A
C291        C292   1.398       .  A
C291        H296   1.083       .  S
C292        C293   1.404       .  A
C292        H297   1.083       .  S
C293        C294   1.404       .  A
C294        H298   1.083       .  S
C299        C300   1.404       .  A
C299        C304   1.398       .  A
C299        H305   1.083       .  S
C300        C301   1.404       .  A
C301        C302   1.398       .  A
C301        H306   1.083       .  S
C302        C303   1.405       .  A
C302        H307   1.083       .  S
C303        C304   1.405       .  A
C304        H308   1.083       .  S
C309        C314   1.398       .  A
C309        C718   1.404       .  A
C309        H315   1.084       .  S
C310        C311   1.404   1_545  A
C310        C717   1.404       .  A
C311        C312   1.398       .  A
C311        H316   1.083       .  S
C312        C313   1.405   1_565  A
C312        H317   1.083       .  S
C313        C722   1.404       .  A
C314        C721   1.404       .  A
C314        H318   1.083       .  S
C319        C324   1.398       .  A
C319        C728   1.404       .  A
C319        H325   1.083       .  S
C320        C321   1.404   1_565  A
C320        C727   1.404       .  A
C321        C322   1.398       .  A
C321        H326   1.083       .  S
C322        C323   1.405   1_545  A
C322        H327   1.083       .  S
C323        C732   1.405       .  A
C324        C731   1.405       .  A
C324        H328   1.083       .  S
C329        C330   1.405       .  A
C329        C334   1.398       .  A
C329        H335   1.083       .  S
C330       C1147   1.405   1_655  A
C331        C332   1.398       .  A
C331       C1146   1.405       .  A
C331        H336   1.083       .  S
C332        C333   1.403       .  A
C332        H337   1.083       .  S
C333       C1150   1.403       .  A
C334       C1149   1.403       .  A
C334        H338   1.083       .  S
C339        C340   1.406       .  A
C339        C344   1.398       .  A
C339        H345   1.083       .  S
C340        C341   1.406       .  A
C341        C342   1.397       .  A
C341        H346   1.083       .  S
C342        C343   1.406       .  A
C342        H347   1.083       .  S
C343        C344   1.406       .  A
C344        H348   1.083       .  S
C349        C350   1.406       .  A
C349        C354   1.397       .  A
C349        H355   1.083       .  S
C350        C351   1.406       .  A
C351        C352   1.398       .  A
C351        H356   1.083       .  S
C352        C353   1.406       .  A
C352        H357   1.083       .  S
C353        C354   1.406       .  A
C354        H358   1.083       .  S
C359        C360   1.404       .  A
C359        C364   1.398       .  A
C359        H365   1.084       .  S
C360       C1177   1.404   1_655  A
C361        C362   1.398       .  A
C361       C1176   1.404       .  A
C361        H366   1.084       .  S
C362       C1179   1.405       .  A
C362        H367   1.083       .  S
C363        C364   1.405       .  A
C363       C1178   1.405   1_655  A
C364        H368   1.083       .  S
C369        C370   1.404       .  A
C369        C374   1.398       .  A
C369        H375   1.083       .  S
C370       C1595   1.404       .  A
C371        C372   1.398       .  A
C371       C1594   1.404   1_465  A
C371        H376   1.083       .  S
C372       C1189   1.404   1_465  A
C372        H377   1.083       .  S
C373       C1188   1.404   1_545  A
C373        C782   1.404       .  A
C374        C781   1.404       .  A
C374        H378   1.083       .  S
C379        C380   1.406       .  A
C379        C384   1.398       .  A
C379        H385   1.083       .  S
C380        C381   1.406       .  A
C381        C382   1.398       .  A
C381        H386   1.083       .  S
C382        C383   1.406       .  A
C382        H387   1.083       .  S
C383        C384   1.406       .  A
C384        H388   1.083       .  S
C389        C390   1.406       .  A
C389        C394   1.398       .  A
C389        H395   1.083       .  S
C390        C391   1.406       .  A
C391        C392   1.398       .  A
C391        H396   1.083       .  S
C392        C393   1.406       .  A
C392        H397   1.083       .  S
C393        C394   1.406       .  A
C394        H398   1.083       .  S
C399        C400   1.404       .  A
C399        C404   1.398       .  A
C399        H405   1.083       .  S
C400        C830   1.476       .  S
C400       C1625   1.404       .  A
C401        C402   1.398       .  A
C401       C1624   1.404   1_455  A
C401        H406   1.083       .  S
C402       C1627   1.405   1_455  A
C402        H407   1.083       .  S
C403        C404   1.405       .  A
C403       C1626   1.405       .  A
C404        H408   1.083       .  S
O409        C419   1.282       .  A
O409      Ni1233   1.917       .  S
O410        C420   1.282       .  A
O411       C1237   1.281   1_465  A
O411       Ni417   1.917       .  S
O412        C422   1.281   1_465  A
O412       Ni417   1.917       .  S
O413        C830   1.281       .  A
O413       Ni418   1.917       .  S
O414       Ni418   1.917       .  S
O415        C420   1.282       .  A
O415      Ni1234   1.917   1_455  S
O416        C419   1.282       .  A
Ni417      O1225   1.917   1_455  S
Ni417      Ni826   2.387   1_465  S
Ni418      O1231   1.917       .  S
Ni418      Ni825   2.387       .  S
C419        C791   1.481       .  S
C420        C801   1.481       .  S
C421       O1227   1.281   1_545  A
C421        C778   1.476       .  S
C422        O821   1.281       .  A
C422       C1624   1.476       .  S
O423        C433   1.282       .  A
O423      Ni1247   1.916       .  S
O424        C434   1.282       .  A
O424       Ni431   1.918       .  S
O425        C435   1.281   1_455  A
O425       Ni431   1.917       .  S
O426        C436   1.281   1_455  A
O426       Ni431   1.917       .  S
O427       C1252   1.281       .  A
O427       Ni432   1.917       .  S
O428       C1251   1.281       .  A
O428       Ni432   1.917       .  S
O429        C434   1.282       .  A
O429      Ni1248   1.916   1_455  S
O430        C433   1.282       .  A
O430       Ni432   1.918       .  S
Ni431      O1239   1.916   1_455  S
Ni431     Ni1248   2.387   1_455  S
Ni432      O1245   1.916       .  S
Ni432     Ni1247   2.387       .  S
C433        C748   1.481       .  S
C434        C758   1.481       .  S
C435       O1244   1.281       .  A
C435        C738   1.478       .  S
C436       O1243   1.281       .  A
C436        C768   1.474       .  S
O437       Ni445   1.917       .  S
O438       Ni445   1.917       .  S
O439        C449   1.282       .  A
O439       Ni445   1.917       .  S
O440        C450   1.282       .  A
O441        C450   1.282       .  A
O441       Ni446   1.917       .  S
O442        C449   1.282       .  A
O443        C448   1.281       .  A
O443       Ni446   1.917       .  S
O444        C447   1.281       .  A
O444       Ni446   1.917       .  S
C447        C731   1.477       .  S
C448        C718   1.475       .  S
C449        C761   1.481       .  S
C450        C751   1.481       .  S
O451        C461   1.281       .  A
O451       Ni459   1.917       .  S
O452        C462   1.281       .  A
O452       Ni459   1.917       .  S
O453        C463   1.282       .  A
O453       Ni459   1.917       .  S
O454        C464   1.282       .  A
O454       Ni459   1.917       .  S
O455        C464   1.282       .  A
O455       Ni460   1.917       .  S
O456        C463   1.282       .  A
O456       Ni460   1.917       .  S
O457        C462   1.281       .  A
O457       Ni460   1.917       .  S
O458        C461   1.281       .  A
O458       Ni460   1.917       .  S
Ni459      Ni460   2.387       .  S
C461        C708   1.475       .  S
C462        C698   1.476       .  S
C463        C798   1.481       .  S
C464        C788   1.481       .  S
O465        C475   1.282       .  A
O465      Ni1289   1.917   1_455  S
O466        C476   1.282   1_564  A
O466       Ni473   1.916   1_554  S
O467        C477   1.281   1_565  A
O467       Ni473   1.916       .  S
O468        C478   1.281   1_565  A
O468       Ni473   1.917   1_554  S
O469        C886   1.281   1_455  A
O469       Ni474   1.917   1_554  S
O470        C885   1.281   1_455  A
O470       Ni474   1.916       .  S
O471      Ni1290   1.917       .  S
O472       Ni474   1.916   1_554  S
Ni473      O1281   1.917       .  S
Ni473      Ni882   2.388   1_565  S
Ni474      O1287   1.917   1_455  S
Ni474      Ni881   2.388   1_455  S
C475        C678   1.481       .  S
C476        C671   1.481       .  S
C477        O878   1.281       .  A
C477        C688   1.472   1_545  S
C478        O877   1.281       .  A
C478        C811   1.476       .  S
O479        C489   1.282   1_554  A
O479       Ni487   1.916   1_554  S
O480        C490   1.282       .  A
O480      Ni1303   1.917       .  S
O481        C491   1.281   1_455  A
O481       Ni487   1.916   1_554  S
O482       C1308   1.281   1_455  A
O482       Ni487   1.916       .  S
O483        C492   1.281       .  A
O483       Ni488   1.916       .  S
O484       C1307   1.281       .  A
O484       Ni488   1.916   1_554  S
O485        C490   1.282   1_554  A
O485       Ni488   1.916   1_554  S
O486        C489   1.282       .  A
O486      Ni1304   1.917   1_455  S
Ni487      O1296   1.917   1_455  S
Ni487     Ni1304   2.387   1_455  S
Ni488      O1302   1.917       .  S
Ni488     Ni1303   2.387       .  S
C489        C648   1.481       .  S
C490        C638   1.481       .  S
C491       O1300   1.281       .  A
C491        C771   1.476       .  S
C492       O1298   1.281       .  A
C492        C658   1.476       .  S
O493        C503   1.282       .  A
O493       Ni501   1.916       .  S
O494        C504   1.282   1_554  A
O494       Ni501   1.917   1_554  S
O495        C505   1.281       .  A
O495       Ni501   1.917       .  S
O496        C506   1.281       .  A
O496       Ni501   1.917   1_554  S
O497       Ni502   1.917   1_554  S
O498       Ni502   1.916       .  S
O499       Ni502   1.916       .  S
O500       Ni502   1.917   1_554  S
C503        C681   1.481       .  S
C504        C668   1.481       .  S
C505        C628   1.475       .  S
C506        C728   1.474       .  S
O507        C517   1.282       .  A
O507       Ni515   1.916       .  S
O508        C518   1.281   1_554  A
O508       Ni515   1.916   1_554  S
O509        C519   1.280       .  A
O509       Ni515   1.917       .  S
O510        C520   1.281       .  A
O510       Ni515   1.917   1_554  S
O511        C520   1.281       .  A
O511       Ni516   1.917   1_554  S
O512        C519   1.280       .  A
O512       Ni516   1.917       .  S
O513        C518   1.282       .  A
O513       Ni516   1.916       .  S
O514        C517   1.282   1_554  A
O514       Ni516   1.916   1_554  S
Ni515      Ni516   2.388       .  S
C517        C651   1.481       .  S
C518        C641   1.481       .  S
C519        C618   1.465       .  S
C520        C711   1.476       .  S
O521       C1347   1.282   1_455  A
O522       C1348   1.282       .  A
O522       Ni529   1.917       .  S
O523       C1349   1.281       .  A
O523       Ni529   1.916       .  S
O524       C1350   1.281   1_455  A
O524       Ni529   1.916       .  S
O525       Ni530   1.916       .  S
O526       Ni530   1.916       .  S
O527        C532   1.282       .  A
O528        C531   1.282       .  A
O528       Ni530   1.917       .  S
Ni529      Ni938   2.387   1_455  S
Ni530      Ni937   2.387   1_565  S
C531       O1337   1.282       .  A
C531        C598   1.481       .  S
C532       O1338   1.282       .  A
C532        C608   1.481       .  S
C533       O1339   1.281       .  A
C534       O1340   1.281       .  A
C534        C781   1.475       .  S
O535       C1361   1.282   1_455  A
O535       Ni543   1.916       .  S
O536       C1362   1.282       .  A
O536       Ni543   1.917       .  S
O537       C1363   1.281   1_455  A
O537       Ni543   1.916       .  S
O538       C1364   1.281   1_455  A
O538       Ni543   1.917       .  S
O539        C548   1.281       .  A
O539       Ni544   1.917       .  S
O540        C547   1.281       .  A
O540       Ni544   1.916       .  S
O541        C546   1.282       .  A
O541       Ni544   1.916       .  S
O542        C545   1.282       .  A
O542       Ni544   1.917       .  S
Ni543     Ni1360   2.388   1_455  S
Ni544     Ni1359   2.388       .  S
C545       O1351   1.282       .  A
C545        C611   1.481       .  S
C546       O1352   1.282       .  A
C546        C601   1.481       .  S
C547       O1353   1.281       .  A
C547        C661   1.474       .  S
C548       O1354   1.281       .  A
C548        C741   1.473       .  S
O549        C559   1.282       .  A
O550        C560   1.282       .  A
O550       Ni557   1.916       .  S
O551       Ni557   1.916       .  S
O552       Ni557   1.916       .  S
O553        C562   1.281       .  A
O553       Ni558   1.916       .  S
O554        C561   1.281       .  A
O554       Ni558   1.916       .  S
O555        C560   1.282       .  A
O556        C559   1.282       .  A
O556       Ni558   1.916       .  S
C559        C588   1.481       .  S
C560        C578   1.481       .  S
C561        C631   1.475       .  S
C562        C721   1.475       .  S
O563        C573   1.282       .  A
O563       Ni571   1.919       .  S
O564        C574   1.281       .  A
O564       Ni571   1.914       .  S
O565        C575   1.281       .  A
O565       Ni571   1.917       .  S
O566        C576   1.282       .  A
O566       Ni571   1.917       .  S
O567        C576   1.282       .  A
O567       Ni572   1.917       .  S
O568        C575   1.281       .  A
O568       Ni572   1.917       .  S
O569        C574   1.282       .  A
O569       Ni572   1.919       .  S
O570        C573   1.281       .  A
O570       Ni572   1.914       .  S
Ni571      Ni572   2.387       .  S
C573        C591   1.481       .  S
C574        C581   1.481       .  S
C575        C701   1.476       .  S
C576        C621   1.481       .  S
C577        C578   1.405       .  A
C577        C582   1.396       .  A
C577        H583   1.083       .  S
C578        C579   1.406       .  A
C579        C580   1.399       .  A
C579        H584   1.083       .  S
C580        C581   1.406       .  A
C580        H585   1.083       .  S
C581        C582   1.405       .  A
C582        H586   1.083       .  S
C587        C588   1.405       .  A
C587        C592   1.396       .  A
C587        H593   1.083       .  S
C588        C589   1.406       .  A
C589        C590   1.399       .  A
C589        H594   1.083       .  S
C590        C591   1.406       .  A
C590        H595   1.083       .  S
C591        C592   1.405       .  A
C592        H596   1.083       .  S
C597        C598   1.406       .  A
C597        C602   1.398       .  A
C597        H603   1.083       .  S
C598       C1415   1.406       .  A
C599       C1414   1.406   1_455  A
C599        C600   1.398       .  A
C599        H604   1.083       .  S
C600       C1417   1.405       .  A
C600        H605   1.083       .  S
C601       C1416   1.406       .  A
C601        C602   1.406       .  A
C602        H606   1.083       .  S
C607       C1424   1.406       .  A
C607        C612   1.398       .  A
C607        H613   1.083       .  S
C608       C1423   1.406       .  A
C608        C609   1.406       .  A
C609        C610   1.398       .  A
C609        H614   1.083       .  S
C610        C611   1.406       .  A
C610        H615   1.083       .  S
C611       C1428   1.406       .  A
C612       C1427   1.406   1_455  A
C612        H616   1.083       .  S
C617        C618   1.400       .  A
C617        C622   1.398       .  A
C617        H623   1.083       .  S
C618        C619   1.400       .  A
C619        C620   1.398       .  A
C619        H624   1.083       .  S
C620        C621   1.407       .  A
C620        H625   1.083       .  S
C621        C622   1.407       .  A
C622        H626   1.083       .  S
C627        C632   1.398       .  A
C627        H633   1.083       .  S
C628        C629   1.404       .  A
C629        C630   1.398       .  A
C629        H634   1.083       .  S
C630        C631   1.404       .  A
C630        H635   1.083       .  S
C632        H636   1.083       .  S
C637        C638   1.406   1_554  A
C637        C642   1.398       .  A
C637        H643   1.083       .  S
C638        C639   1.405       .  A
C639        C640   1.397       .  A
C639        H644   1.083       .  S
C640        C641   1.405       .  A
C640        H645   1.083       .  S
C641        C642   1.406   1_556  A
C642        H646   1.083       .  S
C647        C648   1.405       .  A
C647        C652   1.397       .  A
C647        H653   1.083       .  S
C648        C649   1.406   1_556  A
C649        C650   1.398       .  A
C649        H654   1.083       .  S
C650        C651   1.406   1_554  A
C650        H655   1.083       .  S
C651        C652   1.405       .  A
C652        H656   1.083       .  S
C657        C658   1.405       .  A
C657        C662   1.398       .  A
C657        H663   1.083       .  S
C658       C1475   1.405       .  A
C659       C1474   1.405   1_455  A
C659        C660   1.398       .  A
C659        H664   1.083       .  S
C660       C1477   1.404       .  A
C660        H665   1.083       .  S
C661       C1476   1.404       .  A
C661        C662   1.404       .  A
C662        H666   1.083       .  S
C667        C672   1.397       .  A
C667        H673   1.083       .  S
C668        C669   1.406   1_556  A
C669        C670   1.398       .  A
C669        H674   1.083       .  S
C670        H675   1.083       .  S
C671        C672   1.406   1_545  A
C672        H676   1.083       .  S
C677        C678   1.406   1_554  A
C677        C682   1.398       .  A
C677        H683   1.083       .  S
C679        C680   1.397       .  A
C679        H684   1.083       .  S
C680        C681   1.406       .  A
C680        H685   1.083       .  S
C682        H686   1.083       .  S
C687       C1504   1.403   1_545  A
C687        C692   1.398       .  A
C687        H693   1.083       .  S
C688       C1503   1.403   1_565  A
C689        C690   1.398       .  A
C689        H694   1.083       .  S
C690        H695   1.083       .  S
C691       C1508   1.405   1_565  A
C692       C1507   1.405   1_545  A
C692        H696   1.083       .  S
C697        C698   1.404       .  A
C697        C702   1.398       .  A
C697        H703   1.083       .  S
C698        C699   1.404       .  A
C699        C700   1.398       .  A
C699        H704   1.083       .  S
C700        C701   1.404       .  A
C700        H705   1.083       .  S
C701        C702   1.404       .  A
C702        H706   1.083       .  S
C707        C708   1.404       .  A
C707        C712   1.398       .  A
C707        H713   1.083       .  S
C708        C709   1.404       .  A
C709        C710   1.398       .  A
C709        H714   1.083       .  S
C710        C711   1.405       .  A
C710        H715   1.083       .  S
C711        C712   1.405       .  A
C712        H716   1.083       .  S
C717        C722   1.398       .  A
C717        H723   1.084       .  S
C718        C719   1.404       .  A
C719        C720   1.398       .  A
C719        H724   1.083       .  S
C720        C721   1.405       .  A
C720        H725   1.083       .  S
C722        H726   1.083       .  S
C727        C732   1.398       .  A
C727        H733   1.083       .  S
C728        C729   1.404       .  A
C729        C730   1.398       .  A
C729        H734   1.083       .  S
C730        C731   1.405       .  A
C730        H735   1.083       .  S
C732        H736   1.083       .  S
C737        C738   1.405       .  A
C737        C742   1.398       .  A
C737        H743   1.083       .  S
C738       C1555   1.405   1_655  A
C739       C1554   1.405       .  A
C739        C740   1.398       .  A
C739        H744   1.083       .  S
C740        C741   1.403       .  A
C740        H745   1.083       .  S
C741       C1558   1.403       .  A
C742       C1557   1.403       .  A
C742        H746   1.083       .  S
C747        C748   1.406       .  A
C747        C752   1.398       .  A
C747        H753   1.083       .  S
C748        C749   1.406       .  A
C749        C750   1.397       .  A
C749        H754   1.083       .  S
C750        C751   1.406       .  A
C750        H755   1.083       .  S
C751        C752   1.406       .  A
C752        H756   1.083       .  S
C757        C758   1.406       .  A
C757        C762   1.397       .  A
C757        H763   1.083       .  S
C758        C759   1.406       .  A
C759        C760   1.398       .  A
C759        H764   1.083       .  S
C760        C761   1.406       .  A
C760        H765   1.083       .  S
C761        C762   1.406       .  A
C762        H766   1.083       .  S
C767        C768   1.404       .  A
C767        C772   1.398       .  A
C767        H773   1.084       .  S
C768       C1585   1.404   1_655  A
C769       C1584   1.404       .  A
C769        C770   1.398       .  A
C769        H774   1.084       .  S
C770       C1587   1.405       .  A
C770        H775   1.083       .  S
C771       C1586   1.405   1_655  A
C771        C772   1.405       .  A
C772        H776   1.083       .  S
C777        C778   1.404       .  A
C777        C782   1.398       .  A
C777        H783   1.083       .  S
C778       C1187   1.404   1_545  A
C779       C1186   1.404   1_455  A
C779        C780   1.398       .  A
C779        H784   1.083       .  S
C780       C1597   1.404   1_455  A
C780        H785   1.083       .  S
C781       C1596   1.404       .  A
C782        H786   1.083       .  S
C787        C788   1.406       .  A
C787        C792   1.398       .  A
C787        H793   1.083       .  S
C788        C789   1.406       .  A
C789        C790   1.398       .  A
C789        H794   1.083       .  S
C790        C791   1.406       .  A
C790        H795   1.083       .  S
C791        C792   1.406       .  A
C792        H796   1.083       .  S
C797        C798   1.406       .  A
C797        C802   1.398       .  A
C797        H803   1.083       .  S
C798        C799   1.406       .  A
C799        C800   1.398       .  A
C799        H804   1.083       .  S
C800        C801   1.406       .  A
C800        H805   1.083       .  S
C801        C802   1.406       .  A
C802        H806   1.083       .  S
C807        C808   1.404   1_565  A
C807        C812   1.398       .  A
C807        H813   1.083       .  S
C808       C1238   1.476       .  S
C808       C1217   1.404       .  A
C809       C1216   1.404   1_455  A
C809        C810   1.398       .  A
C809        H814   1.083       .  S
C810       C1219   1.405   1_455  A
C810        H815   1.083       .  S
C811       C1218   1.405       .  A
C811        C812   1.405   1_545  A
C812        H816   1.083       .  S
O817        C827   1.282       .  A
O818        C828   1.282       .  A
O818      Ni1233   1.917   1_545  S
O819       Ni825   1.917       .  S
O820        C830   1.281       .  A
O820       Ni825   1.917       .  S
O821       Ni826   1.917       .  S
O822       C1237   1.281       .  A
O822       Ni826   1.917       .  S
O823        C828   1.282       .  A
O824        C827   1.282       .  A
O824      Ni1234   1.917       .  S
Ni825      O1226   1.917       .  S
Ni826      O1232   1.917   1_545  S
C827       C1199   1.481       .  S
C828       C1209   1.481       .  S
C829       O1230   1.281       .  A
C829       C1186   1.476       .  S
O831        C841   1.282       .  A
O832        C842   1.282       .  A
O832       Ni839   1.918       .  S
O833        C843   1.281       .  A
O833       Ni839   1.917       .  S
O834        C844   1.281       .  A
O834       Ni839   1.917       .  S
O835       Ni840   1.917       .  S
O836       Ni840   1.917       .  S
O837        C842   1.282       .  A
O838        C841   1.282       .  A
O838       Ni840   1.918       .  S
C841       C1156   1.481       .  S
C842       C1166   1.481       .  S
C843       C1146   1.478       .  S
C844       C1176   1.474       .  S
O845       C1263   1.281       .  A
O845       Ni853   1.917       .  S
O846       C1264   1.281       .  A
O846       Ni853   1.917       .  S
O847        C857   1.282       .  A
O847       Ni853   1.917       .  S
O848        C858   1.282       .  A
O848      Ni1261   1.916   1_545  S
O849        C858   1.282       .  A
O849       Ni854   1.917       .  S
O850        C857   1.282       .  A
O850      Ni1262   1.916       .  S
O851        C856   1.281       .  A
O851       Ni854   1.917       .  S
O852        C855   1.281   1_545  A
O852       Ni854   1.917       .  S
Ni853      O1256   1.916       .  S
Ni853     Ni1262   2.387       .  S
Ni854      O1258   1.916   1_545  S
Ni854     Ni1261   2.387   1_545  S
C855       O1253   1.281       .  A
C855       C1139   1.477       .  S
C856       O1254   1.281   1_545  A
C856       C1126   1.475       .  S
C857       C1169   1.481       .  S
C858       C1159   1.481       .  S
O859        C869   1.281       .  A
O859       Ni867   1.917       .  S
O860        C870   1.281       .  A
O860       Ni867   1.917       .  S
O861        C871   1.282       .  A
O861       Ni867   1.917       .  S
O862        C872   1.282       .  A
O862       Ni867   1.917       .  S
O863        C872   1.282       .  A
O863       Ni868   1.917       .  S
O864        C871   1.282       .  A
O864       Ni868   1.917       .  S
O865        C870   1.281       .  A
O865       Ni868   1.917       .  S
O866        C869   1.281       .  A
O866       Ni868   1.917       .  S
Ni867      Ni868   2.387       .  S
C869       C1116   1.475       .  S
C870       C1106   1.476       .  S
C871       C1206   1.481       .  S
C872       C1196   1.481       .  S
O873        C883   1.282       .  A
O874        C884   1.282   1_554  A
O874       Ni881   1.916   1_554  S
O875        C885   1.281       .  A
O875       Ni881   1.916       .  S
O876        C886   1.281       .  A
O876       Ni881   1.917   1_554  S
O877       Ni882   1.917   1_554  S
O878       Ni882   1.916       .  S
O879       C1292   1.282       .  A
O880       C1291   1.282   1_544  A
O880       Ni882   1.916   1_554  S
C883       O1288   1.282   1_556  A
C883       C1086   1.481       .  S
C884       O1287   1.282       .  A
C884       C1079   1.481       .  S
C885       C1096   1.472   1_655  S
C886       C1219   1.476       .  S
O887        C897   1.282   1_554  A
O887       Ni895   1.916   1_554  S
O888        C898   1.282       .  A
O889        C899   1.281       .  A
O889       Ni895   1.916   1_554  S
O890       Ni895   1.916       .  S
O891        C900   1.281       .  A
O891       Ni896   1.916       .  S
O892       Ni896   1.916   1_554  S
O893        C898   1.282   1_554  A
O893       Ni896   1.916   1_554  S
O894        C897   1.282       .  A
C897       C1056   1.481       .  S
C898       C1046   1.481       .  S
C899       C1179   1.476       .  S
C900       C1066   1.476       .  S
O901        C911   1.282   1_545  A
O901       Ni909   1.916       .  S
O902        C912   1.282   1_554  A
O902       Ni909   1.917   1_554  S
O903        C913   1.281       .  A
O903       Ni909   1.917       .  S
O904        C914   1.281   1_545  A
O904       Ni909   1.917   1_554  S
O905       C1322   1.281       .  A
O905       Ni910   1.917   1_554  S
O906       C1321   1.281       .  A
O906       Ni910   1.916       .  S
O907       C1320   1.282       .  A
O907       Ni910   1.916       .  S
O908       C1319   1.282   1_554  A
O908       Ni910   1.917   1_554  S
Ni909     Ni1318   2.387   1_545  S
Ni910     Ni1317   2.387       .  S
C911       O1316   1.282   1_556  A
C911       C1089   1.481       .  S
C912       O1315   1.282   1_545  A
C912       C1076   1.481       .  S
C913       O1314   1.281   1_545  A
C913       C1036   1.475       .  S
C914       O1313   1.281       .  A
C914       C1136   1.474       .  S
O915        C925   1.282       .  A
O915       Ni923   1.916       .  S
O916        C926   1.281   1_554  A
O916       Ni923   1.916   1_554  S
O917        C927   1.280       .  A
O917       Ni923   1.917       .  S
O918        C928   1.281       .  A
O918       Ni923   1.917   1_554  S
O919        C928   1.281       .  A
O919       Ni924   1.917   1_554  S
O920        C927   1.280       .  A
O920       Ni924   1.917       .  S
O921        C926   1.282       .  A
O921       Ni924   1.916       .  S
O922        C925   1.282   1_554  A
O922       Ni924   1.916   1_554  S
Ni923      Ni924   2.388       .  S
C925       C1059   1.481       .  S
C926       C1049   1.481       .  S
C927       C1026   1.465       .  S
C928       C1119   1.476       .  S
O929      Ni1345   1.916       .  S
O930       Ni937   1.917       .  S
O931       Ni937   1.916       .  S
O932       Ni937   1.916       .  S
O933       C1350   1.281       .  A
O933       Ni938   1.916       .  S
O934       C1349   1.281   1_655  A
O934       Ni938   1.916       .  S
O935        C940   1.282   1_655  A
O935      Ni1346   1.916   1_545  S
O936        C939   1.282       .  A
O936       Ni938   1.917       .  S
Ni937      O1337   1.916   1_545  S
Ni938      O1343   1.916       .  S
C939       C1006   1.481       .  S
C940       C1016   1.481       .  S
C941       O1342   1.281   1_455  A
C941       C1507   1.477       .  S
C942       O1341   1.281   1_545  A
C942       C1189   1.475       .  S
O943       Ni951   1.916       .  S
O944       Ni951   1.917       .  S
O945       Ni951   1.916       .  S
O946       Ni951   1.917       .  S
O947        C956   1.281       .  A
O947       Ni952   1.917       .  S
O948        C955   1.281       .  A
O948       Ni952   1.916       .  S
O949        C954   1.282   1_655  A
O949       Ni952   1.916       .  S
O950        C953   1.282       .  A
O950       Ni952   1.917       .  S
C953       C1019   1.481       .  S
C954       C1009   1.481       .  S
C955       C1069   1.474   1_655  S
C956       C1149   1.473       .  S
O957        C967   1.282       .  A
O957      Ni1373   1.917   1_545  S
O958        C968   1.282       .  A
O958       Ni965   1.916       .  S
O959       C1377   1.281       .  A
O959       Ni965   1.916       .  S
O960       C1378   1.281       .  A
O960       Ni965   1.916       .  S
O961        C970   1.281   1_545  A
O961       Ni966   1.916       .  S
O962        C969   1.281       .  A
O962       Ni966   1.916       .  S
O963        C968   1.282       .  A
O963      Ni1374   1.917       .  S
O964        C967   1.282       .  A
O964       Ni966   1.916       .  S
Ni965      O1365   1.917       .  S
Ni965     Ni1374   2.387       .  S
Ni966      O1371   1.917   1_545  S
Ni966     Ni1373   2.387   1_545  S
C967        C996   1.481       .  S
C968        C986   1.481       .  S
C969       O1367   1.281   1_545  A
C969       C1039   1.475       .  S
C970       O1368   1.281       .  A
C970       C1129   1.475   1_565  S
O971        C981   1.282       .  A
O971       Ni979   1.919       .  S
O972        C982   1.281       .  A
O972       Ni979   1.914       .  S
O973        C983   1.281       .  A
O973       Ni979   1.917       .  S
O974        C984   1.282       .  A
O974       Ni979   1.917       .  S
O975        C984   1.282       .  A
O975       Ni980   1.917       .  S
O976        C983   1.281       .  A
O976       Ni980   1.917       .  S
O977        C982   1.282       .  A
O977       Ni980   1.919       .  S
O978        C981   1.281       .  A
O978       Ni980   1.914       .  S
Ni979      Ni980   2.387       .  S
C981        C999   1.481       .  S
C982        C989   1.481       .  S
C983       C1109   1.476       .  S
C984       C1029   1.481       .  S
C985        C986   1.405       .  A
C985        C990   1.396       .  A
C985        H991   1.083       .  S
C986        C987   1.406       .  A
C987        C988   1.399       .  A
C987        H992   1.083       .  S
C988        C989   1.406       .  A
C988        H993   1.083       .  S
C989        C990   1.405       .  A
C990        H994   1.083       .  S
C995        C996   1.405       .  A
C995       C1000   1.396       .  A
C995       H1001   1.083       .  S
C996        C997   1.406       .  A
C997        C998   1.399       .  A
C997       H1002   1.083       .  S
C998        C999   1.406       .  A
C998       H1003   1.083       .  S
C999       C1000   1.405       .  A
C1000      H1004   1.083       .  S
C1005      C1006   1.406       .  A
C1005      C1010   1.398       .  A
C1005      H1011   1.083       .  S
C1007      C1008   1.398       .  A
C1007      H1012   1.083       .  S
C1008      H1013   1.083       .  S
C1009      C1010   1.406   1_455  A
C1010      H1014   1.083       .  S
C1015      C1020   1.398       .  A
C1015      H1021   1.083       .  S
C1016      C1017   1.406   1_455  A
C1017      C1018   1.398       .  A
C1017      H1022   1.083       .  S
C1018      C1019   1.406       .  A
C1018      H1023   1.083       .  S
C1020      H1024   1.083       .  S
C1025      C1026   1.400       .  A
C1025      C1030   1.398       .  A
C1025      H1031   1.083       .  S
C1026      C1027   1.400       .  A
C1027      C1028   1.398       .  A
C1027      H1032   1.083       .  S
C1028      C1029   1.407       .  A
C1028      H1033   1.083       .  S
C1029      C1030   1.407       .  A
C1030      H1034   1.083       .  S
C1035      C1444   1.404       .  A
C1035      C1040   1.398       .  A
C1035      H1041   1.083       .  S
C1036      C1443   1.404   1_545  A
C1036      C1037   1.404       .  A
C1037      C1038   1.398       .  A
C1037      H1042   1.083       .  S
C1038      C1039   1.404       .  A
C1038      H1043   1.083       .  S
C1039      C1448   1.404   1_545  A
C1040      C1447   1.404       .  A
C1040      H1044   1.083       .  S
C1045      C1046   1.406   1_554  A
C1045      C1050   1.398       .  A
C1045      H1051   1.083       .  S
C1046      C1047   1.405       .  A
C1047      C1048   1.397       .  A
C1047      H1052   1.083       .  S
C1048      C1049   1.405       .  A
C1048      H1053   1.083       .  S
C1049      C1050   1.406   1_556  A
C1050      H1054   1.083       .  S
C1055      C1056   1.405       .  A
C1055      C1060   1.397       .  A
C1055      H1061   1.083       .  S
C1056      C1057   1.406   1_556  A
C1057      C1058   1.398       .  A
C1057      H1062   1.083       .  S
C1058      C1059   1.406   1_554  A
C1058      H1063   1.083       .  S
C1059      C1060   1.405       .  A
C1060      H1064   1.083       .  S
C1065      C1066   1.405       .  A
C1065      C1070   1.398       .  A
C1065      H1071   1.083       .  S
C1067      C1068   1.398       .  A
C1067      H1072   1.083       .  S
C1068      H1073   1.083       .  S
C1069      C1070   1.404   1_455  A
C1070      H1074   1.083       .  S
C1075      C1484   1.406       .  A
C1075      C1080   1.397       .  A
C1075      H1081   1.083       .  S
C1076      C1483   1.406   1_545  A
C1076      C1077   1.406   1_556  A
C1077      C1078   1.398       .  A
C1077      H1082   1.083       .  S
C1078      C1487   1.406   1_554  A
C1078      H1083   1.083       .  S
C1079      C1486   1.406   1_556  A
C1079      C1080   1.406       .  A
C1080      H1084   1.083       .  S
C1085      C1086   1.406   1_554  A
C1085      C1090   1.398       .  A
C1085      H1091   1.083       .  S
C1086      C1495   1.406       .  A
C1087      C1494   1.406   1_545  A
C1087      C1088   1.397       .  A
C1087      H1092   1.083       .  S
C1088      C1089   1.406   1_545  A
C1088      H1093   1.083       .  S
C1089      C1498   1.406   1_556  A
C1090      C1497   1.406   1_554  A
C1090      H1094   1.083       .  S
C1095      C1100   1.398       .  A
C1095      H1101   1.083       .  S
C1096      C1505   1.403   1_455  A
C1097      C1504   1.403   1_655  A
C1097      C1098   1.398       .  A
C1097      H1102   1.083       .  S
C1098      C1507   1.405   1_655  A
C1098      H1103   1.083       .  S
C1099      C1349   1.477       .  S
C1099      C1506   1.405   1_455  A
C1100      H1104   1.083       .  S
C1105      C1106   1.404       .  A
C1105      C1110   1.398       .  A
C1105      H1111   1.083       .  S
C1106      C1107   1.404       .  A
C1107      C1108   1.398       .  A
C1107      H1112   1.083       .  S
C1108      C1109   1.404       .  A
C1108      H1113   1.083       .  S
C1109      C1110   1.404       .  A
C1110      H1114   1.083       .  S
C1115      C1116   1.404       .  A
C1115      C1120   1.398       .  A
C1115      H1121   1.083       .  S
C1116      C1117   1.404       .  A
C1117      C1118   1.398       .  A
C1117      H1122   1.083       .  S
C1118      C1119   1.405       .  A
C1118      H1123   1.083       .  S
C1119      C1120   1.405       .  A
C1120      H1124   1.083       .  S
C1125      C1534   1.404       .  A
C1125      C1130   1.398       .  A
C1125      H1131   1.084       .  S
C1126      C1533   1.404       .  A
C1126      C1127   1.404   1_545  A
C1127      C1128   1.398       .  A
C1127      H1132   1.083       .  S
C1128      C1129   1.405   1_565  A
C1128      H1133   1.083       .  S
C1129      C1538   1.404       .  A
C1130      C1537   1.404       .  A
C1130      H1134   1.083       .  S
C1135      C1544   1.404       .  A
C1135      C1140   1.398       .  A
C1135      H1141   1.083       .  S
C1136      C1543   1.404       .  A
C1136      C1137   1.404   1_565  A
C1137      C1138   1.398       .  A
C1137      H1142   1.083       .  S
C1138      C1139   1.405   1_545  A
C1138      H1143   1.083       .  S
C1139      C1548   1.405       .  A
C1140      C1547   1.405       .  A
C1140      H1144   1.083       .  S
C1145      C1146   1.405       .  A
C1145      C1150   1.398       .  A
C1145      H1151   1.083       .  S
C1147      C1148   1.398       .  A
C1147      H1152   1.083       .  S
C1148      C1149   1.403   1_455  A
C1148      H1153   1.083       .  S
C1150      H1154   1.083       .  S
C1155      C1156   1.406       .  A
C1155      C1160   1.398       .  A
C1155      H1161   1.083       .  S
C1156      C1157   1.406       .  A
C1157      C1158   1.397       .  A
C1157      H1162   1.083       .  S
C1158      C1159   1.406       .  A
C1158      H1163   1.083       .  S
C1159      C1160   1.406       .  A
C1160      H1164   1.083       .  S
C1165      C1166   1.406       .  A
C1165      C1170   1.397       .  A
C1165      H1171   1.083       .  S
C1166      C1167   1.406       .  A
C1167      C1168   1.398       .  A
C1167      H1172   1.083       .  S
C1168      C1169   1.406       .  A
C1168      H1173   1.083       .  S
C1169      C1170   1.406       .  A
C1170      H1174   1.083       .  S
C1175      C1176   1.404       .  A
C1175      C1180   1.398       .  A
C1175      H1181   1.084       .  S
C1177      C1178   1.398       .  A
C1177      H1182   1.084       .  S
C1178      H1183   1.083       .  S
C1179      C1180   1.405       .  A
C1180      H1184   1.083       .  S
C1185      C1186   1.404       .  A
C1185      C1190   1.398       .  A
C1185      H1191   1.083       .  S
C1187      C1188   1.398       .  A
C1187      H1192   1.083       .  S
C1188      H1193   1.083       .  S
C1189      C1598   1.404       .  A
C1190      C1597   1.404       .  A
C1190      H1194   1.083       .  S
C1195      C1196   1.406       .  A
C1195      C1200   1.398       .  A
C1195      H1201   1.083       .  S
C1196      C1197   1.406       .  A
C1197      C1198   1.398       .  A
C1197      H1202   1.083       .  S
C1198      C1199   1.406       .  A
C1198      H1203   1.083       .  S
C1199      C1200   1.406       .  A
C1200      H1204   1.083       .  S
C1205      C1206   1.406       .  A
C1205      C1210   1.398       .  A
C1205      H1211   1.083       .  S
C1206      C1207   1.406       .  A
C1207      C1208   1.398       .  A
C1207      H1212   1.083       .  S
C1208      C1209   1.406       .  A
C1208      H1213   1.083       .  S
C1209      C1210   1.406       .  A
C1210      H1214   1.083       .  S
C1215      C1216   1.404       .  A
C1215      C1220   1.398       .  A
C1215      H1221   1.083       .  S
C1217      C1218   1.398       .  A
C1217      H1222   1.083       .  S
C1218      H1223   1.083       .  S
C1219      C1220   1.405       .  A
C1220      H1224   1.083       .  S
O1225      C1235   1.282       .  A
O1226      C1236   1.282       .  A
O1227     Ni1233   1.917       .  S
O1228      C1238   1.281   1_565  A
O1228     Ni1233   1.917       .  S
O1229     Ni1234   1.917       .  S
O1230     Ni1234   1.917       .  S
O1231      C1236   1.282       .  A
O1232      C1235   1.282       .  A
C1235      C1607   1.481       .  S
C1236      C1617   1.481       .  S
C1237      C1594   1.476       .  S
O1239      C1249   1.282       .  A
O1240      C1250   1.282       .  A
O1240     Ni1247   1.918       .  S
O1241      C1251   1.281       .  A
O1241     Ni1247   1.917       .  S
O1242      C1252   1.281       .  A
O1242     Ni1247   1.917       .  S
O1243     Ni1248   1.917       .  S
O1244     Ni1248   1.917       .  S
O1245      C1250   1.282       .  A
O1246      C1249   1.282       .  A
O1246     Ni1248   1.918       .  S
C1249      C1564   1.481       .  S
C1250      C1574   1.481       .  S
C1251      C1554   1.478       .  S
C1252      C1584   1.474       .  S
O1253     Ni1261   1.917       .  S
O1254     Ni1261   1.917       .  S
O1255      C1265   1.282       .  A
O1255     Ni1261   1.917       .  S
O1256      C1266   1.282       .  A
O1257      C1266   1.282       .  A
O1257     Ni1262   1.917       .  S
O1258      C1265   1.282       .  A
O1259      C1264   1.281       .  A
O1259     Ni1262   1.917       .  S
O1260      C1263   1.281       .  A
O1260     Ni1262   1.917       .  S
C1263      C1547   1.477       .  S
C1264      C1534   1.475       .  S
C1265      C1577   1.481       .  S
C1266      C1567   1.481       .  S
O1267      C1277   1.281       .  A
O1267     Ni1275   1.917       .  S
O1268      C1278   1.281       .  A
O1268     Ni1275   1.917       .  S
O1269      C1279   1.282       .  A
O1269     Ni1275   1.917       .  S
O1270      C1280   1.282       .  A
O1270     Ni1275   1.917       .  S
O1271      C1280   1.282       .  A
O1271     Ni1276   1.917       .  S
O1272      C1279   1.282       .  A
O1272     Ni1276   1.917       .  S
O1273      C1278   1.281       .  A
O1273     Ni1276   1.917       .  S
O1274      C1277   1.281       .  A
O1274     Ni1276   1.917       .  S
Ni1275    Ni1276   2.387       .  S
C1277      C1524   1.475       .  S
C1278      C1514   1.476       .  S
C1279      C1614   1.481       .  S
C1280      C1604   1.481       .  S
O1281      C1291   1.282       .  A
O1282      C1292   1.282   1_564  A
O1282     Ni1289   1.916   1_554  S
O1283      C1293   1.281   1_565  A
O1283     Ni1289   1.916       .  S
O1284      C1294   1.281   1_565  A
O1284     Ni1289   1.917   1_554  S
O1285     Ni1290   1.917   1_554  S
O1286     Ni1290   1.916       .  S
O1288     Ni1290   1.916   1_554  S
C1291      C1494   1.481       .  S
C1292      C1487   1.481       .  S
C1293      C1504   1.472   1_645  S
C1294      C1627   1.476       .  S
O1295      C1305   1.282   1_554  A
O1295     Ni1303   1.916   1_554  S
O1296      C1306   1.282       .  A
O1297      C1307   1.281       .  A
O1297     Ni1303   1.916   1_554  S
O1298     Ni1303   1.916       .  S
O1299      C1308   1.281       .  A
O1299     Ni1304   1.916       .  S
O1300     Ni1304   1.916   1_554  S
O1301      C1306   1.282   1_554  A
O1301     Ni1304   1.916   1_554  S
O1302      C1305   1.282       .  A
C1305      C1464   1.481       .  S
C1306      C1454   1.481       .  S
C1307      C1587   1.476       .  S
C1308      C1474   1.476       .  S
O1309      C1319   1.282       .  A
O1309     Ni1317   1.916       .  S
O1310      C1320   1.282   1_554  A
O1310     Ni1317   1.917   1_554  S
O1311      C1321   1.281       .  A
O1311     Ni1317   1.917       .  S
O1312      C1322   1.281       .  A
O1312     Ni1317   1.917   1_554  S
O1313     Ni1318   1.917   1_554  S
O1314     Ni1318   1.916       .  S
O1315     Ni1318   1.916       .  S
O1316     Ni1318   1.917   1_554  S
C1319      C1497   1.481       .  S
C1320      C1484   1.481       .  S
C1321      C1444   1.475       .  S
C1322      C1544   1.474       .  S
O1323      C1333   1.282       .  A
O1323     Ni1331   1.916       .  S
O1324      C1334   1.281   1_554  A
O1324     Ni1331   1.916   1_554  S
O1325      C1335   1.280       .  A
O1325     Ni1331   1.917       .  S
O1326      C1336   1.281       .  A
O1326     Ni1331   1.917   1_554  S
O1327      C1336   1.281       .  A
O1327     Ni1332   1.917   1_554  S
O1328      C1335   1.280       .  A
O1328     Ni1332   1.917       .  S
O1329      C1334   1.282       .  A
O1329     Ni1332   1.916       .  S
O1330      C1333   1.282   1_554  A
O1330     Ni1332   1.916   1_554  S
Ni1331    Ni1332   2.388       .  S
C1333      C1467   1.481       .  S
C1334      C1457   1.481       .  S
C1335      C1434   1.465       .  S
C1336      C1527   1.476       .  S
O1338     Ni1345   1.917       .  S
O1339     Ni1345   1.916       .  S
O1340     Ni1345   1.916       .  S
O1341     Ni1346   1.916       .  S
O1342     Ni1346   1.916       .  S
O1343      C1348   1.282   1_655  A
O1344      C1347   1.282       .  A
O1344     Ni1346   1.917       .  S
C1347      C1414   1.481       .  S
C1348      C1424   1.481       .  S
C1350      C1597   1.475       .  S
O1351     Ni1359   1.916       .  S
O1352     Ni1359   1.917       .  S
O1353     Ni1359   1.916       .  S
O1354     Ni1359   1.917       .  S
O1355      C1364   1.281       .  A
O1355     Ni1360   1.917       .  S
O1356      C1363   1.281       .  A
O1356     Ni1360   1.916       .  S
O1357      C1362   1.282   1_655  A
O1357     Ni1360   1.916       .  S
O1358      C1361   1.282       .  A
O1358     Ni1360   1.917       .  S
C1361      C1427   1.481       .  S
C1362      C1417   1.481       .  S
C1363      C1477   1.474   1_655  S
C1364      C1557   1.473       .  S
O1365      C1375   1.282       .  A
O1366      C1376   1.282       .  A
O1366     Ni1373   1.916       .  S
O1367     Ni1373   1.916       .  S
O1368     Ni1373   1.916       .  S
O1369      C1378   1.281       .  A
O1369     Ni1374   1.916       .  S
O1370      C1377   1.281       .  A
O1370     Ni1374   1.916       .  S
O1371      C1376   1.282       .  A
O1372      C1375   1.282       .  A
O1372     Ni1374   1.916       .  S
C1375      C1404   1.481       .  S
C1376      C1394   1.481       .  S
C1377      C1447   1.475       .  S
C1378      C1537   1.475       .  S
O1379      C1389   1.282       .  A
O1379     Ni1387   1.919       .  S
O1380      C1390   1.281       .  A
O1380     Ni1387   1.914       .  S
O1381      C1391   1.281       .  A
O1381     Ni1387   1.917       .  S
O1382      C1392   1.282       .  A
O1382     Ni1387   1.917       .  S
O1383      C1392   1.282       .  A
O1383     Ni1388   1.917       .  S
O1384      C1391   1.281       .  A
O1384     Ni1388   1.917       .  S
O1385      C1390   1.282       .  A
O1385     Ni1388   1.919       .  S
O1386      C1389   1.281       .  A
O1386     Ni1388   1.914       .  S
Ni1387    Ni1388   2.387       .  S
C1389      C1407   1.481       .  S
C1390      C1397   1.481       .  S
C1391      C1517   1.476       .  S
C1392      C1437   1.481       .  S
C1393      C1394   1.405       .  A
C1393      C1398   1.396       .  A
C1393      H1399   1.083       .  S
C1394      C1395   1.406       .  A
C1395      C1396   1.399       .  A
C1395      H1400   1.083       .  S
C1396      C1397   1.406       .  A
C1396      H1401   1.083       .  S
C1397      C1398   1.405       .  A
C1398      H1402   1.083       .  S
C1403      C1404   1.405       .  A
C1403      C1408   1.396       .  A
C1403      H1409   1.083       .  S
C1404      C1405   1.406       .  A
C1405      C1406   1.399       .  A
C1405      H1410   1.083       .  S
C1406      C1407   1.406       .  A
C1406      H1411   1.083       .  S
C1407      C1408   1.405       .  A
C1408      H1412   1.083       .  S
C1413      C1414   1.406       .  A
C1413      C1418   1.398       .  A
C1413      H1419   1.083       .  S
C1415      C1416   1.398       .  A
C1415      H1420   1.083       .  S
C1416      H1421   1.083       .  S
C1417      C1418   1.406   1_455  A
C1418      H1422   1.083       .  S
C1423      C1428   1.398       .  A
C1423      H1429   1.083       .  S
C1424      C1425   1.406   1_455  A
C1425      C1426   1.398       .  A
C1425      H1430   1.083       .  S
C1426      C1427   1.406       .  A
C1426      H1431   1.083       .  S
C1428      H1432   1.083       .  S
C1433      C1434   1.400       .  A
C1433      C1438   1.398       .  A
C1433      H1439   1.083       .  S
C1434      C1435   1.400       .  A
C1435      C1436   1.398       .  A
C1435      H1440   1.083       .  S
C1436      C1437   1.407       .  A
C1436      H1441   1.083       .  S
C1437      C1438   1.407       .  A
C1438      H1442   1.083       .  S
C1443      C1448   1.398       .  A
C1443      H1449   1.083       .  S
C1444      C1445   1.404       .  A
C1445      C1446   1.398       .  A
C1445      H1450   1.083       .  S
C1446      C1447   1.404       .  A
C1446      H1451   1.083       .  S
C1448      H1452   1.083       .  S
C1453      C1454   1.406   1_554  A
C1453      C1458   1.398       .  A
C1453      H1459   1.083       .  S
C1454      C1455   1.405       .  A
C1455      C1456   1.397       .  A
C1455      H1460   1.083       .  S
C1456      C1457   1.405       .  A
C1456      H1461   1.083       .  S
C1457      C1458   1.406   1_556  A
C1458      H1462   1.083       .  S
C1463      C1464   1.405       .  A
C1463      C1468   1.397       .  A
C1463      H1469   1.083       .  S
C1464      C1465   1.406   1_556  A
C1465      C1466   1.398       .  A
C1465      H1470   1.083       .  S
C1466      C1467   1.406   1_554  A
C1466      H1471   1.083       .  S
C1467      C1468   1.405       .  A
C1468      H1472   1.083       .  S
C1473      C1474   1.405       .  A
C1473      C1478   1.398       .  A
C1473      H1479   1.083       .  S
C1475      C1476   1.398       .  A
C1475      H1480   1.083       .  S
C1476      H1481   1.083       .  S
C1477      C1478   1.404   1_455  A
C1478      H1482   1.083       .  S
C1483      C1488   1.397       .  A
C1483      H1489   1.083       .  S
C1484      C1485   1.406   1_556  A
C1485      C1486   1.398       .  A
C1485      H1490   1.083       .  S
C1486      H1491   1.083       .  S
C1487      C1488   1.406   1_545  A
C1488      H1492   1.083       .  S
C1493      C1494   1.406   1_554  A
C1493      C1498   1.398       .  A
C1493      H1499   1.083       .  S
C1495      C1496   1.397       .  A
C1495      H1500   1.083       .  S
C1496      C1497   1.406       .  A
C1496      H1501   1.083       .  S
C1498      H1502   1.083       .  S
C1503      C1508   1.398       .  A
C1503      H1509   1.083       .  S
C1505      C1506   1.398       .  A
C1505      H1510   1.083       .  S
C1506      H1511   1.083       .  S
C1508      H1512   1.083       .  S
C1513      C1514   1.404       .  A
C1513      C1518   1.398       .  A
C1513      H1519   1.083       .  S
C1514      C1515   1.404       .  A
C1515      C1516   1.398       .  A
C1515      H1520   1.083       .  S
C1516      C1517   1.404       .  A
C1516      H1521   1.083       .  S
C1517      C1518   1.404       .  A
C1518      H1522   1.083       .  S
C1523      C1524   1.404       .  A
C1523      C1528   1.398       .  A
C1523      H1529   1.083       .  S
C1524      C1525   1.404       .  A
C1525      C1526   1.398       .  A
C1525      H1530   1.083       .  S
C1526      C1527   1.405       .  A
C1526      H1531   1.083       .  S
C1527      C1528   1.405       .  A
C1528      H1532   1.083       .  S
C1533      C1538   1.398       .  A
C1533      H1539   1.084       .  S
C1534      C1535   1.404       .  A
C1535      C1536   1.398       .  A
C1535      H1540   1.083       .  S
C1536      C1537   1.405       .  A
C1536      H1541   1.083       .  S
C1538      H1542   1.083       .  S
C1543      C1548   1.398       .  A
C1543      H1549   1.083       .  S
C1544      C1545   1.404       .  A
C1545      C1546   1.398       .  A
C1545      H1550   1.083       .  S
C1546      C1547   1.405       .  A
C1546      H1551   1.083       .  S
C1548      H1552   1.083       .  S
C1553      C1554   1.405       .  A
C1553      C1558   1.398       .  A
C1553      H1559   1.083       .  S
C1555      C1556   1.398       .  A
C1555      H1560   1.083       .  S
C1556      C1557   1.403   1_455  A
C1556      H1561   1.083       .  S
C1558      H1562   1.083       .  S
C1563      C1564   1.406       .  A
C1563      C1568   1.398       .  A
C1563      H1569   1.083       .  S
C1564      C1565   1.406       .  A
C1565      C1566   1.397       .  A
C1565      H1570   1.083       .  S
C1566      C1567   1.406       .  A
C1566      H1571   1.083       .  S
C1567      C1568   1.406       .  A
C1568      H1572   1.083       .  S
C1573      C1574   1.406       .  A
C1573      C1578   1.397       .  A
C1573      H1579   1.083       .  S
C1574      C1575   1.406       .  A
C1575      C1576   1.398       .  A
C1575      H1580   1.083       .  S
C1576      C1577   1.406       .  A
C1576      H1581   1.083       .  S
C1577      C1578   1.406       .  A
C1578      H1582   1.083       .  S
C1583      C1584   1.404       .  A
C1583      C1588   1.398       .  A
C1583      H1589   1.084       .  S
C1585      C1586   1.398       .  A
C1585      H1590   1.084       .  S
C1586      H1591   1.083       .  S
C1587      C1588   1.405       .  A
C1588      H1592   1.083       .  S
C1593      C1594   1.404       .  A
C1593      C1598   1.398       .  A
C1593      H1599   1.083       .  S
C1595      C1596   1.398       .  A
C1595      H1600   1.083       .  S
C1596      H1601   1.083       .  S
C1598      H1602   1.083       .  S
C1603      C1604   1.406       .  A
C1603      C1608   1.398       .  A
C1603      H1609   1.083       .  S
C1604      C1605   1.406       .  A
C1605      C1606   1.398       .  A
C1605      H1610   1.083       .  S
C1606      C1607   1.406       .  A
C1606      H1611   1.083       .  S
C1607      C1608   1.406       .  A
C1608      H1612   1.083       .  S
C1613      C1614   1.406       .  A
C1613      C1618   1.398       .  A
C1613      H1619   1.083       .  S
C1614      C1615   1.406       .  A
C1615      C1616   1.398       .  A
C1615      H1620   1.083       .  S
C1616      C1617   1.406       .  A
C1616      H1621   1.083       .  S
C1617      C1618   1.406       .  A
C1618      H1622   1.083       .  S
C1623      C1624   1.404   1_565  A
C1623      C1628   1.398       .  A
C1623      H1629   1.083       .  S
C1625      C1626   1.398       .  A
C1625      H1630   1.083       .  S
C1626      H1631   1.083       .  S
C1627      C1628   1.405   1_545  A
C1628      H1632   1.083       .  S
