geometry optimzed in LAMMPS
_audit_creation_date              2020-12-01 
_audit_creation_method            'lammps2cif' 
_symmetry_space_group_name_H-M    'P1' 
_symmetry_Int_Tables_number       1 
_symmetry_cell_setting            triclinic 
loop_ 
_symmetry_equiv_pos_as_xyz 
  x,y,z 
_cell_length_a                    56.32204671 
_cell_length_b                    56.45078677808571 
_cell_length_c                    56.31336627228611 
_cell_angle_alpha                 90.07673596957247 
_cell_angle_beta                  89.98145364751105 
_cell_angle_gamma                 90.26770262258802 
loop_ 
_atom_site_label 
_atom_site_type_symbol 
_atom_site_fract_x 
_atom_site_fract_y 
_atom_site_fract_z 
_atom_site_charge 
O1          O  0.76537175  0.39758389  0.81421291    -0.56600
C2          C  0.71570389  0.41348973  0.86831583     0.76000
O3          O  0.74684166  0.34562059  0.87243966    -0.57800
C4          C  0.78015580  0.38097657  0.81119809     0.76000
C5          C  0.79477685  0.40327497  0.88305367     0.78400
Cd6        Cd  0.75583535  0.38566711  0.85563226     1.37500
O7          O  0.72185773  0.41115143  0.84676537    -0.56600
O8          O  0.78248447  0.41683000  0.87011592    -0.55400
C9          C  0.72964843  0.34205492  0.85829235     0.78300
O10         O  0.78817713  0.38178843  0.88449020    -0.57800
O11         O  0.72934980  0.40488644  0.88390737    -0.56300
O12         O  0.78345229  0.36722102  0.82856538    -0.56300
O13         O  0.72540574  0.35821157  0.84342634    -0.55400
O14         O  0.77659803  0.66029695  0.90954224    -0.56600
C15         C  0.72276676  0.68852275  0.87031506     0.76000
O16         O  0.75845952  0.63331780  0.83550854    -0.57800
C17         C  0.79123246  0.64343419  0.90780078     0.76000
C18         C  0.71402438  0.61423381  0.89146204     0.78400
Cd19       Cd  0.75070108  0.64688024  0.87677539     1.37500
O20         O  0.72161461  0.67099654  0.85632434    -0.56600
O21         O  0.73015046  0.60775545  0.87719804    -0.55400
C22         C  0.77218022  0.65050553  0.83060435     0.78300
O23         O  0.71585874  0.63491854  0.89988457    -0.57800
O24         O  0.73674776  0.68677550  0.88786676    -0.56300
O25         O  0.78631347  0.62738973  0.89284750    -0.56300
O26         O  0.77664132  0.66490523  0.84723924    -0.55400
O27         O  0.73005603  0.69068285  0.11937411    -0.56600
C28         C  0.78264537  0.64539336  0.10775918     0.76000
O29         O  0.76363404  0.64744935  0.17732518    -0.57800
C30         C  0.71124171  0.69181197  0.13167739     0.76000
C31         C  0.70901472  0.61524085  0.13575293     0.78400
Cd32       Cd  0.74307061  0.65333025  0.13857551     1.37500
O33         O  0.76489580  0.65721654  0.10073032    -0.56600
O34         O  0.72312436  0.61982856  0.11888142    -0.55400
C35         C  0.76841553  0.66930241  0.17989028     0.78300
O36         O  0.71219581  0.62655785  0.15491975    -0.57800
O37         O  0.78120442  0.63612613  0.12818260    -0.56300
O38         O  0.70713963  0.67480267  0.14565460    -0.56300
O39         O  0.76072207  0.68315599  0.16414864    -0.55400
O40         O  0.72646349  0.39426819  0.14340602    -0.56600
C41         C  0.78334458  0.35811829  0.17233410     0.76000
O42         O  0.73083607  0.32352305  0.12247926    -0.57800
C43         C  0.71439598  0.39460698  0.12442591     0.76000
C44         C  0.79135959  0.36347725  0.09724298     0.78400
Cd45       Cd  0.75298804  0.36141566  0.13154688     1.37500
O46         O  0.77300498  0.37747156  0.16748263    -0.56600
O47         O  0.78871108  0.37927293  0.11300623    -0.55400
C48         C  0.72264751  0.32195947  0.14345011     0.78300
O49         O  0.77525423  0.34773450  0.09602671    -0.57800
O50         O  0.77979492  0.34097067  0.15823211    -0.56300
O51         O  0.72204720  0.38193881  0.10755372    -0.56300
O52         O  0.72912429  0.33770268  0.15798255    -0.55400
O53         O  0.84301332  0.78737156  0.34422381    -0.56600
C54         C  0.87359383  0.71971053  0.39489713     0.76000
O55         O  0.85178115  0.73183833  0.33689841    -0.57800
C56         C  0.82670795  0.78656377  0.35966527     0.76000
C57         C  0.90417510  0.79669431  0.37509710     0.78400
Cd58       Cd  0.86980931  0.76010374  0.36360200     1.37500
O59         O  0.85921258  0.73639784  0.39902758    -0.56600
O60         O  0.91033698  0.77864780  0.36322152    -0.55400
C61         C  0.86371759  0.73678327  0.31855914     0.78300
O62         O  0.88296389  0.79703268  0.38232648    -0.57800
O63         O  0.88768412  0.72264953  0.37763013    -0.56300
O64         O  0.83034591  0.77357990  0.37764824    -0.56300
O65         O  0.87949583  0.75274683  0.32077371    -0.55400
O66         O  0.82726602  0.72760953  0.59661479    -0.56600
C67         C  0.79508437  0.77918024  0.63327668     0.76000
O68         O  0.82029478  0.73020452  0.66216342    -0.57800
C69         C  0.84287145  0.71199659  0.60040967     0.76000
C70         C  0.86930511  0.79149276  0.61642818     0.78400
Cd71       Cd  0.83835154  0.75296890  0.63028637     1.37500
O72         O  0.79764599  0.76383571  0.61706726    -0.56600
O73         O  0.86024754  0.77767907  0.60121099    -0.55400
C74         C  0.83809052  0.73010576  0.67586876     0.78300
O75         O  0.86596852  0.78617821  0.63798439    -0.57800
O76         O  0.81221489  0.78190575  0.64747840    -0.56300
O77         O  0.85737931  0.71598082  0.61715838    -0.56300
O78         O  0.85674653  0.74029910  0.66835430    -0.55400
O79         O  0.09680431  0.73355133  0.70883066    -0.56600
C80         C  0.08400194  0.79298276  0.66757577     0.76000
O81         O  0.15102095  0.77669676  0.66636793    -0.57800
C82         C  0.11343150  0.71848993  0.71025726     0.76000
C83         C  0.10982766  0.71957783  0.63496560     0.78400
Cd84       Cd  0.11439415  0.75302923  0.67324662     1.37500
O85         O  0.07813731  0.77615690  0.68137424    -0.56600
O86         O  0.09231023  0.73148431  0.64230838    -0.55400
C87         C  0.15344245  0.78209134  0.68814625     0.78300
O88         O  0.13001718  0.72508791  0.64329083    -0.57800
O89         O  0.10253762  0.79012711  0.65517962    -0.56300
O90         O  0.12945840  0.71951424  0.69456877    -0.56300
O91         O  0.13891454  0.77291364  0.70256471    -0.55400
O92         O  0.13947393  0.79307744  0.37472856    -0.56600
C93         C  0.17960708  0.73746841  0.34092497     0.76000
O94         O  0.21091508  0.77959162  0.39499353    -0.57800
C95         C  0.13539740  0.79813425  0.39629204     0.76000
C96         C  0.16945128  0.72389845  0.41524907     0.78400
Cd97       Cd  0.17103916  0.76381627  0.38380498     1.37500
O98         O  0.15839580  0.73995764  0.34816942    -0.56600
O99         O  0.15435883  0.72665631  0.39881747    -0.55400
C100        C  0.20965169  0.79646520  0.38015732     0.78300
O101        O  0.18469816  0.74029837  0.41801431    -0.57800
O102        O  0.19556597  0.74822571  0.35239993    -0.56300
O103        O  0.14584139  0.78571025  0.41171599    -0.56300
O104        O  0.19044663  0.79842620  0.36872207    -0.55400
O105        O  0.64146759  0.18818208  0.79550197    -0.56600
C106        C  0.59909094  0.15742738  0.72173079     0.76000
O107        O  0.66490348  0.14485013  0.75191359    -0.57800
C108        C  0.62783233  0.20540875  0.79142264     0.76000
C109        C  0.61148845  0.12824316  0.80057075     0.78400
Cd110      Cd  0.62614483  0.16186331  0.76482626     1.37500
O111        O  0.59427999  0.17309626  0.73713220    -0.56600
O112        O  0.59702273  0.13596894  0.78529216    -0.55400
C113        C  0.67153797  0.16388695  0.74193534     0.78300
O114        O  0.63288644  0.13475285  0.79834174    -0.57800
O115        O  0.61514116  0.14271101  0.72706499    -0.56300
O116        O  0.61213562  0.20226337  0.77560501    -0.56300
O117        O  0.65755751  0.18126619  0.74326140    -0.55400
O118        O  0.58689402  0.84585236  0.73312839    -0.56600
C119        C  0.62769800  0.81946173  0.78234033     0.76000
O120        O  0.65912686  0.88038150  0.74126026    -0.57800
C121        C  0.58902009  0.85993471  0.71572324     0.76000
C122        C  0.60644398  0.89571554  0.79032943     0.78400
Cd123      Cd  0.62105824  0.86175269  0.75486820     1.37500
O124        O  0.64323507  0.83556161  0.78062201    -0.56600
O125        O  0.59287822  0.88992600  0.77340975    -0.55400
C126        C  0.66335331  0.86392117  0.72651928     0.78300
O127        O  0.62730464  0.88761230  0.78959788    -0.57800
O128        O  0.60851092  0.82266722  0.77114191    -0.56300
O129        O  0.60473147  0.87602146  0.71737614    -0.56300
O130        O  0.64820357  0.84741231  0.72523199    -0.55400
O131        O  0.37009998  0.81506190  0.76335367    -0.56600
C132        C  0.37908214  0.86706835  0.70854714     0.76000
O133        O  0.31331747  0.86761549  0.74342611    -0.57800
C134        C  0.35398190  0.81190680  0.77880863     0.76000
C135        C  0.37165441  0.88465439  0.78884623     0.78400
Cd136      Cd  0.35472866  0.85454953  0.75147255     1.37500
O137        O  0.38045058  0.84624876  0.71692680    -0.56600
O138        O  0.38562663  0.87238320  0.77628282    -0.55400
C139        C  0.30947502  0.85066262  0.72904958     0.78300
O140        O  0.34987185  0.88437235  0.78307121    -0.57800
O141        O  0.36817204  0.88224751  0.72095412    -0.56300
O142        O  0.33891823  0.82825265  0.78120071    -0.56300
O143        O  0.32619591  0.83625868  0.72561579    -0.55400
O144        O  0.39558496  0.15805976  0.71793585    -0.56600
C145        C  0.36026869  0.19374720  0.77292021     0.76000
O146        O  0.32718415  0.13062161  0.73742640    -0.57800
C147        C  0.39833192  0.13666662  0.71163212     0.76000
C148        C  0.38041538  0.12154171  0.78959656     0.78400
Cd149      Cd  0.36598629  0.14894817  0.74911333     1.37500
O150        O  0.37626584  0.19106660  0.75732249    -0.56600
O151        O  0.39481929  0.13448483  0.77815169    -0.55400
C152        C  0.32308132  0.14571574  0.72130849     0.78300
O153        O  0.35933216  0.12029452  0.78173115    -0.57800
O154        O  0.34758567  0.17582541  0.77756351    -0.56300
O155        O  0.38757662  0.12108584  0.72372639    -0.56300
O156        O  0.33862372  0.16163380  0.71834287    -0.55400
O157        O  0.61992567  0.82108456  0.24488695    -0.56600
C158        C  0.61019903  0.87444138  0.29405483     0.76000
O159        O  0.66726602  0.84378280  0.27464077    -0.57800
C160        C  0.63196241  0.81838743  0.22606102     0.76000
C161        C  0.61840622  0.89023482  0.21351151     0.78400
Cd162      Cd  0.63563912  0.86181281  0.25196890     1.37500
O163        O  0.60935683  0.85358067  0.28568887    -0.56600
O164        O  0.60448845  0.88132613  0.22876101    -0.55400
C165        C  0.68241657  0.86015926  0.27215449     0.78300
O166        O  0.64046981  0.88766410  0.21709816    -0.57800
O167        O  0.62172493  0.88970676  0.28224116    -0.56300
O168        O  0.64531803  0.83536888  0.22001579    -0.56300
O169        O  0.67626937  0.87776742  0.25968162    -0.55400
O170        O  0.59995380  0.14539317  0.27311048    -0.56600
C171        C  0.63604696  0.18864423  0.22089584     0.76000
O172        O  0.67779344  0.13152679  0.25605580    -0.57800
C173        C  0.60899764  0.13358073  0.28994674     0.76000
C174        C  0.62739458  0.11100091  0.21186361     0.78400
Cd175      Cd  0.63670390  0.14524798  0.24828754     1.37500
O176        O  0.64342805  0.16909769  0.21302271    -0.56600
O177        O  0.61057605  0.12201510  0.22183609    -0.55400
C178        C  0.68299252  0.14931963  0.26880260     0.78300
O179        O  0.64799281  0.11409881  0.22037332    -0.57800
O180        O  0.62748934  0.18840372  0.24171180    -0.56300
O181        O  0.63004853  0.12655390  0.28696463    -0.56300
O182        O  0.66709247  0.16488915  0.27131482    -0.55400
O183        O  0.40453896  0.82966240  0.25938069    -0.56600
C184        C  0.36680469  0.80310736  0.20976748     0.76000
O185        O  0.34142378  0.86531032  0.26285728    -0.57800
C186        C  0.40170468  0.84320018  0.27710845     0.76000
C187        C  0.38481493  0.87973781  0.20164710     0.78400
Cd188      Cd  0.37049305  0.84582367  0.23682259     1.37500
O189        O  0.37431406  0.80277349  0.23095901    -0.56600
O190        O  0.39986732  0.86858600  0.21389436    -0.55400
C191        C  0.32562658  0.84946888  0.26066883     0.78300
O192        O  0.36320465  0.87685137  0.20709225    -0.57800
O193        O  0.36164982  0.82310212  0.20118225    -0.56300
O194        O  0.38573079  0.85877222  0.27535725    -0.56300
O195        O  0.32973898  0.83302203  0.24603984    -0.55400
O196        O  0.38264638  0.17056583  0.24018102    -0.56600
C197        C  0.40158677  0.12023504  0.29054592     0.76000
O198        O  0.34302251  0.14917386  0.28723061    -0.57800
C199        C  0.36337175  0.17637508  0.23018742     0.76000
C200        C  0.37002820  0.10160870  0.21381507     0.78400
Cd201      Cd  0.36657909  0.13205290  0.25505473     1.37500
O202        O  0.39814775  0.14137014  0.28397904    -0.56600
O203        O  0.38474868  0.11824569  0.21748524    -0.55400
C204        C  0.32510889  0.13577667  0.28526631     0.78300
O205        O  0.35475495  0.09794689  0.22995275    -0.57800
O206        O  0.39044310  0.10428942  0.27928165    -0.56300
O207        O  0.34632584  0.16180736  0.23180497    -0.56300
O208        O  0.32622078  0.11989919  0.26938051    -0.55400
O209        O  0.25905378  0.66943502  0.88749116    -0.56600
C210        C  0.21217113  0.61484421  0.90551633     0.76000
O211        O  0.23384029  0.61666021  0.83084774    -0.57800
C212        C  0.26889933  0.67580920  0.86827217     0.76000
C213        C  0.29079545  0.60475991  0.87484834     0.78400
Cd214      Cd  0.24684065  0.63009287  0.87119976     1.37500
O215        O  0.21666138  0.63652931  0.90191678    -0.56600
O216        O  0.28486273  0.62015639  0.89008757    -0.55400
C217        C  0.21642635  0.63078560  0.83018078     0.78300
O218        O  0.27551680  0.59951631  0.85914738    -0.57800
O219        O  0.22520506  0.60002638  0.89486421    -0.56300
O220        O  0.26742610  0.66160318  0.85095309    -0.56300
O221        O  0.21348561  0.64385348  0.84815285    -0.55400
O222        O  0.27084487  0.41479536  0.83395026    -0.56600
C223        C  0.22041486  0.37062466  0.80531795     0.76000
O224        O  0.25517976  0.34096718  0.86588258    -0.57800
C225        C  0.28782897  0.41144490  0.84826738     0.76000
C226        C  0.21198048  0.39884844  0.88137836     0.78400
Cd227      Cd  0.24661817  0.38081547  0.84796915     1.37500
O228        O  0.21614421  0.36001877  0.82467091    -0.56600
O229        O  0.22842147  0.38512510  0.88797263    -0.55400
C230        C  0.26898610  0.33525018  0.84903216     0.78300
O231        O  0.21215934  0.40494871  0.85978579    -0.57800
O232        O  0.23611325  0.38676871  0.80587704    -0.56300
O233        O  0.28510543  0.39498419  0.86322889    -0.56300
O234        O  0.27181634  0.35036800  0.83276023    -0.55400
O235        O  0.27951307  0.60434471  0.16970181    -0.56600
C236        C  0.22285054  0.64320915  0.19601121     0.76000
O237        O  0.25642197  0.66441250  0.12797367    -0.57800
C238        C  0.28741306  0.59754185  0.14973300     0.76000
C239        C  0.20725315  0.60915780  0.12936197     0.78400
Cd240      Cd  0.24754242  0.62906776  0.15347111     1.37500
O241        O  0.23697155  0.62578838  0.19673727    -0.56600
O242        O  0.21984560  0.59684057  0.14322057    -0.55400
C243        C  0.27404657  0.67071175  0.14048937     0.78300
O244        O  0.21449402  0.62998340  0.12497811    -0.57800
O245        O  0.22080073  0.65358775  0.17632866    -0.56300
O246        O  0.27565619  0.60364752  0.13157131    -0.56300
O247        O  0.27873716  0.65799955  0.15829686    -0.55400
O248        O  0.22947793  0.36590597  0.18225118    -0.56600
C249        C  0.28610568  0.39152836  0.14169038     0.76000
O250        O  0.27489423  0.33229273  0.16389335    -0.57800
C251        C  0.21703527  0.34709254  0.18202536     0.76000
C252        C  0.21328650  0.36667779  0.10582110     0.78400
Cd253      Cd  0.24761173  0.35803137  0.14274404     1.37500
O254        O  0.26813758  0.39504063  0.15476315    -0.56600
O255        O  0.21411408  0.37923152  0.12443819    -0.55400
C256        C  0.27611528  0.31653934  0.14794236     0.78300
O257        O  0.22948226  0.35139973  0.10332920    -0.57800
O258        O  0.28499793  0.37414908  0.12755225    -0.56300
O259        O  0.21857844  0.33414764  0.16379174    -0.56300
O260        O  0.26400255  0.31986910  0.12926900    -0.55400
O261        O  0.87261672  0.26943473  0.67250383    -0.56600
C262        C  0.88750964  0.21645546  0.62703576     0.76000
O263        O  0.81408209  0.24866666  0.62548840    -0.57800
C264        C  0.85719171  0.28545135  0.67538606     0.76000
C265        C  0.86435598  0.29121177  0.59800948     0.78400
Cd266      Cd  0.85657563  0.25622191  0.63380268     1.37500
O267        O  0.89373732  0.23410124  0.63946734    -0.56600
O268        O  0.87646758  0.29049282  0.61686050    -0.55400
C269        C  0.81134028  0.23483598  0.64298336     0.78300
O270        O  0.84996029  0.27428928  0.59444705    -0.57800
O271        O  0.86780984  0.21794486  0.61639462    -0.56300
O272        O  0.84174498  0.28760916  0.65925359    -0.56300
O273        O  0.82947119  0.23077569  0.65556117    -0.55400
O274        O  0.10816649  0.21384362  0.63334578    -0.56600
C275        C  0.14112787  0.26997937  0.67124922     0.76000
O276        O  0.17871613  0.23352171  0.61305460    -0.57800
C277        C  0.10497190  0.20910474  0.61158620     0.76000
C278        C  0.13432193  0.28787508  0.59880560     0.78400
Cd279      Cd  0.13847991  0.24530004  0.62664456     1.37500
O280        O  0.12292541  0.25754093  0.66639358    -0.56600
O281        O  0.11973927  0.28317886  0.61530576    -0.55400
C282        C  0.18203510  0.21877626  0.62962996     0.78300
O283        O  0.14934647  0.27198671  0.59378945    -0.57800
O284        O  0.15747562  0.27037028  0.65587938    -0.56300
O285        O  0.11562126  0.22230053  0.59687552    -0.56300
O286        O  0.16505718  0.21580746  0.64401013    -0.55400
O287        O  0.86184299  0.27774275  0.39193780    -0.56600
C288        C  0.82628355  0.22766786  0.35588140     0.76000
O289        O  0.88790186  0.26236298  0.31838340    -0.57800
C290        C  0.87707384  0.29363088  0.38702552     0.76000
C291        C  0.90214608  0.21370237  0.37479207     0.78400
Cd292      Cd  0.87132682  0.25166247  0.35840825     1.37500
O293        O  0.82981793  0.24347303  0.37149013    -0.56600
O294        O  0.89724712  0.23137422  0.38767060    -0.55400
C295        C  0.87011535  0.27503639  0.31302606     0.78300
O296        O  0.89455660  0.21436638  0.35366942    -0.57800
O297        O  0.84363697  0.22262892  0.34265210    -0.56300
O298        O  0.89096085  0.28942748  0.36979676    -0.56300
O299        O  0.85395897  0.27665716  0.32847787    -0.55400
O300        O  0.14674531  0.27607865  0.34577642    -0.56600
C301        C  0.12150121  0.22027406  0.38883016     0.76000
O302        O  0.19547102  0.24180190  0.39884645    -0.57800
C303        C  0.16717505  0.28539400  0.34345078     0.76000
C304        C  0.15023879  0.29616349  0.41818846     0.78400
Cd305      Cd  0.15666487  0.25758397  0.38491708     1.37500
O306        O  0.11969760  0.23643493  0.37335967    -0.56600
O307        O  0.13775934  0.29414156  0.39963518    -0.55400
C308        C  0.19799046  0.22801061  0.38122057     0.78300
O309        O  0.16414823  0.27918778  0.42270152    -0.57800
O310        O  0.13805131  0.22264927  0.40383238    -0.56300
O311        O  0.18203390  0.28141141  0.35972182    -0.56300
O312        O  0.18155890  0.22803544  0.36589382    -0.55400
C313        C  0.55152035  0.49159277  0.87792344    -0.09700
C314        C  0.56434974  0.51251063  0.88161770    -0.03500
C315        C  0.55336853  0.53378974  0.88766589    -0.09700
C316        C  0.52832833  0.53477697  0.88830424     0.11300
C317        C  0.51483510  0.51372610  0.88436833    -0.01500
C318        C  0.52645938  0.49203088  0.87913935     0.11100
C319        C  0.51276274  0.47142171  0.87573391    -0.11500
C320        C  0.48801964  0.47204823  0.87723137    -0.11500
C321        C  0.47610309  0.49326290  0.88243128     0.11100
C322        C  0.48969225  0.51431997  0.88606845    -0.01500
C323        C  0.51645338  0.55604527  0.89323763    -0.11600
C324        C  0.49178210  0.55670617  0.89449075    -0.11600
C325        C  0.47816814  0.53605938  0.89121338     0.11300
C326        C  0.45325647  0.53650476  0.89304368    -0.09700
C327        C  0.44020263  0.51573643  0.88984402    -0.03500
C328        C  0.45096951  0.49427747  0.88371062    -0.09700
H329        H  0.52110188  0.45460982  0.87188456     0.08600
H330        H  0.47831813  0.45571882  0.87429440     0.08600
H331        H  0.52613966  0.57237205  0.89625627     0.08700
H332        H  0.48342887  0.57351252  0.89836691     0.08700
H333        H  0.58354497  0.51216367  0.87994397     0.05200
H334        H  0.42102873  0.51651859  0.89159901     0.05200
C335        C  0.55042245  0.51874946  0.13932274    -0.09700
C336        C  0.56256955  0.49721759  0.13878484    -0.03500
C337        C  0.55090454  0.47533996  0.13833243    -0.09700
C338        C  0.52573014  0.47479587  0.13844386     0.11300
C339        C  0.51290504  0.49649954  0.13953436    -0.01500
C340        C  0.52529683  0.51854037  0.14003450     0.11100
C341        C  0.51223259  0.53970579  0.14092502    -0.11500
C342        C  0.48748504  0.53936719  0.14205409    -0.11500
C343        C  0.47486611  0.51786864  0.14195461     0.11100
C344        C  0.48763895  0.49618197  0.14034157    -0.01500
C345        C  0.51305221  0.45330816  0.13816287    -0.11600
C346        C  0.48824359  0.45299900  0.13883451    -0.11600
C347        C  0.47520022  0.47417113  0.13987646     0.11300
C348        C  0.45006440  0.47404043  0.14098146    -0.09700
C349        C  0.43801744  0.49557444  0.14253328    -0.03500
C350        C  0.44981230  0.51729823  0.14378260    -0.09700
H351        H  0.52104036  0.55677791  0.14086525     0.08600
H352        H  0.47827353  0.55613204  0.14303734     0.08600
H353        H  0.52228260  0.43653510  0.13759068     0.08700
H354        H  0.47936217  0.43595796  0.13880550     0.08700
H355        H  0.58182718  0.49743793  0.13886012     0.05200
H356        H  0.41874687  0.49552770  0.14249177     0.05200
C357        C  0.50701109  0.86243774  0.55073505    -0.09700
C358        C  0.48425492  0.86208493  0.56055819    -0.03500
C359        C  0.46380920  0.86045074  0.54657463    -0.09700
C360        C  0.46612619  0.85851105  0.52163451     0.11300
C361        C  0.48912150  0.85962617  0.51121242    -0.01500
C362        C  0.50962392  0.86183274  0.52581167     0.11100
C363        C  0.53215045  0.86298812  0.51512815    -0.11500
C364        C  0.53456797  0.86270360  0.49054308    -0.11500
C365        C  0.51459756  0.86060697  0.47576333     0.11100
C366        C  0.49164571  0.85864255  0.48613935    -0.01500
C367        C  0.44619739  0.85594009  0.50683484    -0.11600
C368        C  0.44872024  0.85440246  0.48222031    -0.11600
C369        C  0.47122187  0.85594358  0.47148193     0.11300
C370        C  0.47403694  0.85462345  0.44652010    -0.09700
C371        C  0.49668874  0.85753932  0.43678756    -0.03500
C372        C  0.51682807  0.86095552  0.45082853    -0.09700
H373        H  0.54816366  0.86432618  0.52565918     0.08600
H374        H  0.55228425  0.86412778  0.48322258     0.08600
H375        H  0.42846070  0.85504687  0.51419645     0.08700
H376        H  0.43281377  0.85211756  0.47168494     0.08700
H377        H  0.48239662  0.86307926  0.57971143     0.05200
H378        H  0.49873284  0.85746814  0.41763490     0.05200
C379        C  0.49022726  0.13532051  0.55138500    -0.09700
C380        C  0.51159294  0.13546377  0.56393833    -0.03500
C381        C  0.53359732  0.13350579  0.55270277    -0.09700
C382        C  0.53441511  0.13071814  0.52776421     0.11300
C383        C  0.51289996  0.13127658  0.51449471    -0.01500
C384        C  0.49072939  0.13393154  0.52632565     0.11100
C385        C  0.46974257  0.13447819  0.51285618    -0.11500
C386        C  0.47037823  0.13237100  0.48818453    -0.11500
C387        C  0.49201571  0.12951006  0.47610390     0.11100
C388        C  0.51353726  0.12895408  0.48937506    -0.01500
C389        C  0.55604974  0.12776413  0.51572871    -0.11600
C390        C  0.55665676  0.12521764  0.49108982    -0.11600
C391        C  0.53567460  0.12580597  0.47760557     0.11300
C392        C  0.53608050  0.12298336  0.45267282    -0.09700
C393        C  0.51478463  0.12417046  0.44001104    -0.03500
C394        C  0.49279364  0.12672976  0.45114423    -0.09700
H395        H  0.45259660  0.13636448  0.52131940     0.08600
H396        H  0.45369052  0.13269868  0.47867332     0.08600
H397        H  0.57269927  0.12732270  0.52531179     0.08700
H398        H  0.57374927  0.12275064  0.48266879     0.08700
H399        H  0.51108055  0.13709462  0.58313928     0.05200
H400        H  0.51540393  0.12351702  0.42076456     0.05200
C401        C  0.87776084  0.55284671  0.51775971    -0.09700
C402        C  0.88054212  0.56570727  0.49675743    -0.03500
C403        C  0.88593720  0.55487311  0.47507331    -0.09700
C404        C  0.88957102  0.53006645  0.47440990     0.11300
C405        C  0.88707569  0.51663439  0.49564540    -0.01500
C406        C  0.88118231  0.52807975  0.51739684     0.11100
C407        C  0.87825112  0.51440550  0.53801965    -0.11500
C408        C  0.88105695  0.48992684  0.53743499    -0.11500
C409        C  0.88694390  0.47822019  0.51621113     0.11100
C410        C  0.88997240  0.49163621  0.49505004    -0.01500
C411        C  0.89495781  0.51823939  0.45308991    -0.11600
C412        C  0.89752388  0.49364342  0.45245742    -0.11600
C413        C  0.89500988  0.48000473  0.47315244     0.11300
C414        C  0.89666064  0.45497383  0.47260233    -0.09700
C415        C  0.89479088  0.44238167  0.49384112    -0.03500
C416        C  0.88917981  0.45334508  0.51534712    -0.09700
H417        H  0.87344223  0.52248754  0.55477372     0.08600
H418        H  0.87831203  0.48023021  0.55377843     0.08600
H419        H  0.89685327  0.52788307  0.43660012     0.08700
H420        H  0.90137059  0.48535439  0.43555395     0.08700
H421        H  0.87897828  0.58484444  0.49741712     0.05200
H422        H  0.89703809  0.42329619  0.49344330     0.05200
C423        C  0.13294940  0.56241583  0.49935904    -0.09700
C424        C  0.12872783  0.57325522  0.52127349    -0.03500
C425        C  0.12429231  0.56035834  0.54200800    -0.09700
C426        C  0.12436246  0.53526548  0.54095243     0.11300
C427        C  0.12781533  0.52376341  0.51867800    -0.01500
C428        C  0.13189119  0.53738018  0.49776467     0.11100
C429        C  0.13542308  0.52556142  0.47604653    -0.11500
C430        C  0.13482671  0.50087265  0.47470782    -0.11500
C431        C  0.13092834  0.48706696  0.49506689     0.11100
C432        C  0.12750149  0.49857185  0.51735707    -0.01500
C433        C  0.12078850  0.52137291  0.56137245    -0.11600
C434        C  0.12094215  0.49664654  0.56014756    -0.11600
C435        C  0.12422473  0.48490831  0.53839310     0.11300
C436        C  0.12470782  0.45986344  0.53695807    -0.09700
C437        C  0.12694549  0.44914048  0.51475371    -0.03500
C438        C  0.13084035  0.46201478  0.49399019    -0.09700
H439        H  0.13883186  0.53529388  0.45985750     0.08600
H440        H  0.13770370  0.49263384  0.45757959     0.08600
H441        H  0.11792112  0.52953438  0.57853056     0.08700
H442        H  0.11836909  0.48675148  0.57640676     0.08700
H443        H  0.12912846  0.59243643  0.52226595     0.05200
H444        H  0.12585901  0.42996512  0.51364020     0.05200
C445        C  0.03924087  0.95573616  0.40286670    -0.09700
C446        C  0.01773318  0.94331152  0.40176359    -0.03500
C447        C  0.99568270  0.95463219  0.40148337    -0.09700
C448        C  0.99511994  0.97977261  0.40119286     0.11300
C449        C  0.01680421  0.99287803  0.40196316    -0.01500
C450        C  0.03892205  0.98080813  0.40289172     0.11100
C451        C  0.06005466  0.99412201  0.40395268    -0.11500
C452        C  0.05963896  0.01882643  0.40376778    -0.11500
C453        C  0.03807321  0.03117884  0.40254368     0.11100
C454        C  0.01639246  0.01812048  0.40161435    -0.01500
C455        C  0.97355943  0.99218938  0.40031757    -0.11600
C456        C  0.97317270  0.01690373  0.39966509    -0.11600
C457        C  0.99431873  0.03023595  0.40008419     0.11300
C458        C  0.99403449  0.05536045  0.39944514    -0.09700
C459        C  0.01561852  0.06771030  0.40028249    -0.03500
C460        C  0.03754204  0.05623505  0.40161912    -0.09700
H461        H  0.07716153  0.98553720  0.40499938     0.08600
H462        H  0.07644257  0.02818674  0.40440930     0.08600
H463        H  0.95671188  0.98290964  0.40019773     0.08700
H464        H  0.95604330  0.02547992  0.39909057     0.08700
H465        H  0.01827630  0.92420519  0.39996029     0.05200
H466        H  0.01544485  0.08688869  0.39940172     0.05200
C467        C  0.96286549  0.95159926  0.61970500    -0.09700
C468        C  0.98423575  0.93968471  0.62346552    -0.03500
C469        C  0.00611342  0.95146122  0.62397456    -0.09700
C470        C  0.00699949  0.97599657  0.61908733     0.11300
C471        C  0.98545070  0.98873001  0.61640016    -0.01500
C472        C  0.96323987  0.97658909  0.61736407     0.11100
C473        C  0.94218552  0.98974525  0.61573526    -0.11500
C474        C  0.94283289  0.01437496  0.61360776    -0.11500
C475        C  0.96455857  0.02665490  0.61206885     0.11100
C476        C  0.98612107  0.01369802  0.61308547    -0.01500
C477        C  0.02872605  0.98821837  0.61736206    -0.11600
C478        C  0.02939646  0.01253882  0.61316770    -0.11600
C479        C  0.00836766  0.02571977  0.61139514     0.11300
C480        C  0.00890128  0.05057767  0.60790287    -0.09700
C481        C  0.98743505  0.06289049  0.60729998    -0.03500
C482        C  0.96546210  0.05161243  0.61016023    -0.09700
H483        H  0.92499209  0.98113703  0.61641366     0.08600
H484        H  0.92610686  0.02370434  0.61293829     0.08600
H485        H  0.04546442  0.97906192  0.61911699     0.08700
H486        H  0.04662656  0.02093295  0.61155024     0.08700
H487        H  0.98382415  0.92068085  0.62631634     0.05200
H488        H  0.98778495  0.08202444  0.60565873     0.05200
C489        C  0.38711968  0.98174418  0.94637982    -0.09700
C490        C  0.38690455  0.00369399  0.93498520    -0.03500
C491        C  0.38875106  0.02512841  0.94735617    -0.09700
C492        C  0.39008492  0.02473841  0.97249336     0.11300
C493        C  0.39006748  0.00258749  0.98454047    -0.01500
C494        C  0.38861132  0.98103302  0.97142723     0.11100
C495        C  0.38893884  0.95938248  0.98367635    -0.11500
C496        C  0.39013186  0.95876666  0.00835162    -0.11500
C497        C  0.39102352  0.97977699  0.02173319     0.11100
C498        C  0.39127231  0.00195791  0.00977088    -0.01500
C499        C  0.39159154  0.04573867  0.98590099    -0.11600
C500        C  0.39255577  0.04512028  0.01070259    -0.11600
C501        C  0.39231534  0.02347186  0.02300183     0.11300
C502        C  0.39244368  0.02257218  0.04817296    -0.09700
C503        C  0.39274806  0.00051749  0.05941219    -0.03500
C504        C  0.39201261  0.97920698  0.04678156    -0.09700
H505        H  0.38840135  0.94265704  0.97427914     0.08600
H506        H  0.39046100  0.94158595  0.01684700     0.08600
H507        H  0.39195037  0.06287165  0.97730350     0.08700
H508        H  0.39339820  0.06178784  0.02019357     0.08700
H509        H  0.38427483  0.00413930  0.91591248     0.05200
H510        H  0.39288095  0.99996884  0.07866467     0.05200
C511        C  0.60060073  0.02647863  0.95468005    -0.09700
C512        C  0.59725489  0.00547943  0.94188227    -0.03500
C513        C  0.59549417  0.98333100  0.95291392    -0.09700
C514        C  0.59735221  0.98204352  0.97798207     0.11300
C515        C  0.60101727  0.00314563  0.99137821    -0.01500
C516        C  0.60277387  0.02541322  0.97968713     0.11100
C517        C  0.60655280  0.04597731  0.99332289    -0.11500
C518        C  0.60893923  0.04477114  0.01792081    -0.11500
C519        C  0.60732538  0.02299899  0.02985941     0.11100
C520        C  0.60325897  0.00194704  0.01651281    -0.01500
C521        C  0.59556170  0.96029482  0.99003929    -0.11600
C522        C  0.59773733  0.95913194  0.01468322    -0.11600
C523        C  0.60173981  0.97966877  0.02823320     0.11300
C524        C  0.60386225  0.97867584  0.05325343    -0.09700
C525        C  0.60799449  0.99957536  0.06591758    -0.03500
C526        C  0.61019968  0.02153913  0.05474976    -0.09700
H527        H  0.60767035  0.06326195  0.98511608     0.08600
H528        H  0.61209452  0.06111085  0.02751342     0.08600
H529        H  0.59222376  0.94393826  0.98055446     0.08700
H530        H  0.59608377  0.94195945  0.02306797     0.08700
H531        H  0.59754789  0.00630705  0.92266155     0.05200
H532        H  0.61009562  0.99868190  0.08504618     0.05200
C533        C  0.95454726  0.39454939  0.01227356    -0.09700
C534        C  0.94304964  0.40024923  0.99104188    -0.03500
C535        C  0.95540877  0.40637999  0.97039762    -0.09700
C536        C  0.98046660  0.40711858  0.97078462     0.11300
C537        C  0.99269108  0.40201272  0.99223973    -0.01500
C538        C  0.97972333  0.39576152  0.01309908     0.11100
C539        C  0.99232999  0.39042469  0.03392757    -0.11500
C540        C  0.01710515  0.39148180  0.03446779    -0.11500
C541        C  0.03023352  0.39784539  0.01417970     0.11100
C542        C  0.01795010  0.40300866  0.99276042    -0.01500
C543        C  0.99356945  0.41328897  0.95044174    -0.11600
C544        C  0.01828621  0.41419556  0.95093591    -0.11600
C545        C  0.03087101  0.40899000  0.97179963     0.11300
C546        C  0.05601112  0.40998894  0.97243966    -0.09700
C547        C  0.06759588  0.40474333  0.99372605    -0.03500
C548        C  0.05535465  0.39855945  0.01444304    -0.09700
H549        H  0.98313987  0.38522023  0.04998463     0.08600
H550        H  0.02591162  0.38704300  0.05093826     0.08600
H551        H  0.98479664  0.41770518  0.93394523     0.08700
H552        H  0.02743063  0.41926927  0.93481216     0.08700
H553        H  0.92381942  0.39965609  0.99046529     0.05200
H554        H  0.08682649  0.40506495  0.99415866     0.05200
C555        C  0.95108826  0.60949493  0.99010904    -0.09700
C556        C  0.93737559  0.61027352  0.01072499    -0.03500
C557        C  0.94742671  0.61051933  0.03334420    -0.09700
C558        C  0.97222680  0.60768413  0.03571409     0.11300
C559        C  0.98660534  0.60609295  0.01496189    -0.01500
C560        C  0.97599588  0.60699979  0.99203444     0.11100
C561        C  0.99058467  0.60591104  0.97184298    -0.11500
C562        C  0.01522968  0.60433719  0.97400472    -0.11500
C563        C  0.02620485  0.60383066  0.99644943     0.11100
C564        C  0.01168528  0.60431529  0.01716514    -0.01500
C565        C  0.98307210  0.60691510  0.05814679    -0.11600
C566        C  0.00758717  0.60464212  0.06030541    -0.11600
C567        C  0.02220995  0.60358024  0.04011034     0.11300
C568        C  0.04711966  0.60187818  0.04220615    -0.09700
C569        C  0.06106594  0.60199494  0.02167440    -0.03500
C570        C  0.05127270  0.60289873  0.99884561    -0.09700
H571        H  0.98302671  0.60643656  0.95417906     0.08600
H572        H  0.02559731  0.60344350  0.95785545     0.08600
H573        H  0.97269355  0.60807933  0.07427672     0.08700
H574        H  0.01500742  0.60391693  0.07801308     0.08700
H575        H  0.91820044  0.61121147  0.00907139     0.05200
H576        H  0.08018220  0.60284077  0.02371854     0.05200
C577        C  0.09911449  0.15582837  0.39609574     0.19900
C578        C  0.10224624  0.13749785  0.41270209    -0.18200
C579        C  0.09091851  0.11547627  0.40971772    -0.10500
C580        C  0.07638840  0.11127434  0.38979610     0.22100
C581        C  0.07409879  0.12930153  0.37279397    -0.19800
C582        C  0.08526435  0.15122752  0.37582409    -0.10700
C583        C  0.06122019  0.08976777  0.38682168    -0.14800
C584        C  0.05918238  0.07161575  0.40229231    -0.28700
C585        C  0.11163682  0.17892839  0.39970044    -0.03000
C586        C  0.10588042  0.19915304  0.38830821    -0.39500
H587        H  0.11320486  0.14035953  0.42825846     0.13300
H588        H  0.09323279  0.10216109  0.42327736     0.12900
H589        H  0.06313825  0.12661284  0.35720335     0.12300
H590        H  0.08310675  0.16432795  0.36202933     0.12600
H591        H  0.04881262  0.09009858  0.37202013     0.15300
H592        H  0.07156521  0.06945079  0.41684243     0.14100
H593        H  0.12680404  0.17904265  0.41163069     0.11800
H594        H  0.09060440  0.19978865  0.37663352     0.13800
C595        C  0.14733973  0.40689507  0.45856851     0.19900
C596        C  0.16340930  0.38862839  0.46367089    -0.18200
C597        C  0.16087762  0.36620099  0.45345308    -0.10500
C598        C  0.14203996  0.36133023  0.43778276     0.22100
C599        C  0.12623442  0.37973482  0.43219275    -0.19800
C600        C  0.12871100  0.40224671  0.44255279    -0.10700
C601        C  0.13929573  0.33789087  0.42575260    -0.14800
C602        C  0.14977043  0.31772205  0.43314843    -0.28700
C603        C  0.14931763  0.42910240  0.47277078    -0.03000
C604        C  0.13435846  0.44774288  0.47196196    -0.39500
H605        H  0.17786738  0.39157946  0.47603338     0.13300
H606        H  0.17398630  0.35295285  0.45770722     0.12900
H607        H  0.11172879  0.37660042  0.41994277     0.12300
H608        H  0.11573411  0.41563608  0.43832203     0.12600
H609        H  0.12884026  0.33745879  0.40953741     0.15300
H610        H  0.15987061  0.31734986  0.44951919     0.14100
H611        H  0.16184832  0.42859716  0.48747647     0.11800
H612        H  0.12209886  0.45017284  0.45734544     0.13800
C613        C  0.95206245  0.10950737  0.39947455     0.19900
C614        C  0.94937299  0.12929058  0.41438250    -0.18200
C615        C  0.93682068  0.14926769  0.40686893    -0.10500
C616        C  0.92678163  0.15010784  0.38397954     0.22100
C617        C  0.92845691  0.12983824  0.36952093    -0.19800
C618        C  0.94101665  0.10981191  0.37706439    -0.10700
C619        C  0.91460509  0.17158989  0.37437829    -0.14800
C620        C  0.91552650  0.19332573  0.38441735    -0.28700
C621        C  0.96899496  0.09064149  0.40682241    -0.03000
C622        C  0.97198268  0.06959198  0.39575910    -0.39500
H623        H  0.95762608  0.12958337  0.43176160     0.13300
H624        H  0.93538449  0.16396933  0.41906122     0.12900
H625        H  0.92067630  0.12977306  0.35193141     0.12300
H626        H  0.94285511  0.09516504  0.36483131     0.12600
H627        H  0.90452604  0.16943408  0.35804971     0.15300
H628        H  0.92526703  0.19632178  0.40072659     0.14100
H629        H  0.98106212  0.09514483  0.42122839     0.11800
H630        H  0.95939741  0.06361718  0.38245602     0.13800
C631        C  0.88476786  0.40240457  0.43044286     0.19900
C632        C  0.86512737  0.38711478  0.42856408    -0.18200
C633        C  0.86673929  0.36566683  0.41637315    -0.10500
C634        C  0.88820926  0.35871697  0.40579962     0.22100
C635        C  0.90758630  0.37454271  0.40646142    -0.19800
C636        C  0.90600269  0.39614316  0.41886163    -0.10700
C637        C  0.89043165  0.33527041  0.39373703    -0.14800
C638        C  0.87757460  0.31616326  0.40044125    -0.28700
C639        C  0.88265033  0.42277838  0.44711327    -0.03000
C640        C  0.89850382  0.44050426  0.45046218    -0.39500
H641        H  0.84849605  0.39148555  0.43716277     0.13300
H642        H  0.85107875  0.35454055  0.41536622     0.12900
H643        H  0.92421952  0.36980367  0.39808923     0.12300
H644        H  0.92159537  0.40733148  0.42006562     0.12600
H645        H  0.90286345  0.33372022  0.37906564     0.15300
H646        H  0.86585976  0.31731954  0.41569628     0.14100
H647        H  0.86744587  0.42217289  0.45904611     0.11800
H648        H  0.91343634  0.44311474  0.43857256     0.13800
C649        C  0.13468760  0.40198974  0.57062821     0.19900
C650        C  0.15236528  0.38473173  0.56778254    -0.18200
C651        C  0.14877928  0.36148406  0.57544329    -0.10500
C652        C  0.12725533  0.35473163  0.58618048     0.22100
C653        C  0.10980296  0.37212057  0.58979308    -0.19800
C654        C  0.11334497  0.39548908  0.58194253    -0.10700
C655        C  0.12321268  0.33015419  0.59508601    -0.14800
C656        C  0.13497887  0.31110387  0.58672873    -0.28700
C657        C  0.13867097  0.42535264  0.55896605    -0.03000
C658        C  0.12303494  0.44341622  0.55763132    -0.39500
H659        H  0.16899441  0.38913155  0.55912595     0.13300
H660        H  0.16311356  0.34901125  0.57315960     0.12900
H661        H  0.09320677  0.36750701  0.59837964     0.12300
H662        H  0.09917849  0.40811481  0.58435277     0.12600
H663        H  0.11067308  0.32782203  0.60957638     0.15300
H664        H  0.14703417  0.31288099  0.57180930     0.14100
H665        H  0.15441306  0.42657069  0.54779690     0.11800
H666        H  0.10741882  0.44411363  0.56885452     0.13800
C667        C  0.04960625  0.10493273  0.59930077     0.19900
C668        C  0.05050881  0.12366774  0.58289293    -0.18200
C669        C  0.06216237  0.14495422  0.58840472    -0.10500
C670        C  0.07331167  0.14800608  0.61059065     0.22100
C671        C  0.07302992  0.12898930  0.62666752    -0.19800
C672        C  0.06137726  0.10773262  0.62116496    -0.10700
C673        C  0.08497248  0.17063014  0.61811790    -0.14800
C674        C  0.09052746  0.18868169  0.60344956    -0.28700
C675        C  0.03331448  0.08461992  0.59436001    -0.03000
C676        C  0.03121515  0.06502324  0.60799055    -0.39500
H677        H  0.04135778  0.12217812  0.56603005     0.13300
H678        H  0.06160236  0.15907779  0.57549744     0.12900
H679        H  0.08146458  0.13075052  0.64386961     0.12300
H680        H  0.06081399  0.09409820  0.63459958     0.12600
H681        H  0.09041854  0.17196520  0.63659522     0.15300
H682        H  0.08660646  0.18763122  0.58464509     0.14100
H683        H  0.02048571  0.08712137  0.58016318     0.11800
H684        H  0.04450362  0.06096679  0.62126213     0.13800
C685        C  0.92956180  0.10736376  0.62498372     0.19900
C686        C  0.93415406  0.12593848  0.64096176    -0.18200
C687        C  0.92257873  0.14759918  0.63883166    -0.10500
C688        C  0.90609110  0.15131163  0.62049981     0.22100
C689        C  0.90066977  0.13245401  0.60509581    -0.19800
C690        C  0.91239074  0.11070155  0.60715723    -0.10700
C691        C  0.89345723  0.17420177  0.61783799    -0.14800
C692        C  0.90209464  0.19490445  0.62615581    -0.28700
C693        C  0.94503728  0.08617308  0.62636957    -0.03000
C694        C  0.94425073  0.06716896  0.61182627    -0.39500
H695        H  0.94719291  0.12387891  0.65494603     0.13300
H696        H  0.92651045  0.16124778  0.65175352     0.12900
H697        H  0.88768804  0.13473207  0.59110497     0.12300
H698        H  0.90832587  0.09694353  0.59441691     0.12600
H699        H  0.87618385  0.17386890  0.60923550     0.15300
H700        H  0.91958928  0.19583546  0.63415455     0.14100
H701        H  0.95978168  0.08731316  0.63881891     0.11800
H702        H  0.92954589  0.06415971  0.59978179     0.13800
C703        C  0.87409522  0.35441889  0.57508716     0.19900
C704        C  0.89035487  0.37273787  0.57984802    -0.18200
C705        C  0.88931147  0.39409490  0.56735206    -0.10500
C706        C  0.87168501  0.39758073  0.55002579     0.22100
C707        C  0.85492511  0.37957603  0.54594398    -0.19800
C708        C  0.85599546  0.35828018  0.55837759    -0.10700
C709        C  0.87172125  0.41814925  0.53374119    -0.14800
C710        C  0.88532190  0.43768680  0.53617279    -0.28700
C711        C  0.87579126  0.33205680  0.58872033    -0.03000
C712        C  0.86580912  0.31147355  0.58172106    -0.39500
H713        H  0.90424696  0.37031504  0.59291878     0.13300
H714        H  0.90281139  0.40731594  0.57078256     0.12900
H715        H  0.84116613  0.38180936  0.53270731     0.12300
H716        H  0.84248968  0.34506048  0.55488236     0.12600
H717        H  0.86131280  0.41625819  0.51756928     0.15300
H718        H  0.89486154  0.44139702  0.55247238     0.14100
H719        H  0.88510590  0.33279265  0.60560920     0.11800
H720        H  0.85680754  0.30996054  0.56478090     0.13800
C721        C  0.18822094  0.34152853  0.24373516     0.19900
C722        C  0.19651073  0.34736248  0.26647127    -0.18200
C723        C  0.18675969  0.33656523  0.28656029    -0.10500
C724        C  0.16847116  0.31960429  0.28429565     0.22100
C725        C  0.15892751  0.31514871  0.26173274    -0.19800
C726        C  0.16869657  0.32595739  0.24160448    -0.10700
C727        C  0.15976561  0.30569989  0.30497991    -0.14800
C728        C  0.17419445  0.30023308  0.32313707    -0.28700
C729        C  0.20098296  0.35122339  0.22275076    -0.03000
C730        C  0.20172472  0.33970069  0.20188742    -0.39500
H731        H  0.21114866  0.35969413  0.26865805     0.13300
H732        H  0.19383248  0.34130818  0.30379169     0.12900
H733        H  0.14446612  0.30260856  0.25957440     0.12300
H734        H  0.16109177  0.32182219  0.22445244     0.12600
H735        H  0.14188379  0.29839510  0.30447046     0.15300
H736        H  0.19249727  0.30633103  0.32302962     0.14100
H737        H  0.21189098  0.36698245  0.22516544     0.11800
H738        H  0.19210542  0.32316060  0.19960179     0.13800
C739        C  0.35153882  0.41103391  0.13987029     0.19900
C740        C  0.36984339  0.41078188  0.12294024    -0.18200
C741        C  0.39141782  0.42243314  0.12739584    -0.10500
C742        C  0.39520192  0.43413328  0.14917573     0.22100
C743        C  0.37727043  0.43328153  0.16649197    -0.19800
C744        C  0.35572580  0.42184287  0.16196329    -0.10700
C745        C  0.41586742  0.44998123  0.15363274    -0.14800
C746        C  0.43517150  0.45217904  0.13957634    -0.28700
C747        C  0.32859434  0.39916899  0.13447129    -0.03000
C748        C  0.30778505  0.40607247  0.14402661    -0.39500
H749        H  0.36714978  0.40219909  0.10593119     0.13300
H750        H  0.40457852  0.42291041  0.11343165     0.12900
H751        H  0.37968505  0.44208162  0.18343585     0.12300
H752        H  0.34239831  0.42152265  0.17580971     0.12600
H753        H  0.41404024  0.46236232  0.16833957     0.15300
H754        H  0.43880691  0.43945434  0.12562946     0.14100
H755        H  0.32894705  0.38405137  0.12250634     0.11800
H756        H  0.30701969  0.42155030  0.15544669     0.13800
C757        C  0.15206564  0.38006230  0.07803847     0.19900
C758        C  0.13380410  0.39636931  0.08256950    -0.18200
C759        C  0.11291549  0.39619022  0.06904098    -0.10500
C760        C  0.10979288  0.37945138  0.05076313     0.22100
C761        C  0.12784920  0.36292461  0.04655096    -0.19800
C762        C  0.14864689  0.36309433  0.06001665    -0.10700
C763        C  0.08960474  0.38006555  0.03380821    -0.14800
C764        C  0.07000384  0.39355963  0.03588135    -0.28700
C765        C  0.17372889  0.38056467  0.09326023    -0.03000
C766        C  0.19390074  0.36873669  0.08832395    -0.39500
H767        H  0.13582888  0.40951023  0.09646798     0.13300
H768        H  0.09969504  0.40956113  0.07257660     0.12900
H769        H  0.12599869  0.34991286  0.03249974     0.12300
H770        H  0.16172848  0.34967813  0.05625944     0.12600
H771        H  0.09193519  0.37013615  0.01740475     0.15300
H772        H  0.06584152  0.40263100  0.05233181     0.14100
H773        H  0.17271686  0.39057715  0.10973188     0.11800
H774        H  0.19582387  0.35885788  0.07193930     0.13800
C775        C  0.34909613  0.57122037  0.16433919     0.19900
C776        C  0.36076052  0.56552159  0.18559707    -0.18200
C777        C  0.38363928  0.55603310  0.18534977    -0.10500
C778        C  0.39569334  0.55240123  0.16386115     0.22100
C779        C  0.38430783  0.55846843  0.14250067    -0.19800
C780        C  0.36125401  0.56778696  0.14271463    -0.10700
C781        C  0.41816004  0.53872544  0.16422975    -0.14800
C782        C  0.43448844  0.53853581  0.14667734    -0.28700
C783        C  0.32483950  0.58165847  0.16585593    -0.03000
C784        C  0.30981469  0.58412574  0.14740484    -0.39500
H785        H  0.35198265  0.56809045  0.20252422     0.13300
H786        H  0.39180993  0.55109100  0.20202880     0.12900
H787        H  0.39279208  0.55522478  0.12556951     0.12300
H788        H  0.35321748  0.57230845  0.12591283     0.12600
H789        H  0.42004026  0.52596348  0.17856458     0.15300
H790        H  0.43416078  0.55167437  0.13262998     0.14100
H791        H  0.31924547  0.58811855  0.18316847     0.11800
H792        H  0.31449566  0.57764968  0.12989605     0.13800
C793        C  0.14329993  0.60597212  0.10520512     0.19900
C794        C  0.12393921  0.62152261  0.10641586    -0.18200
C795        C  0.10203828  0.61538612  0.09634590    -0.10500
C796        C  0.09912221  0.59349315  0.08467215     0.22100
C797        C  0.11812738  0.57746761  0.08465467    -0.19800
C798        C  0.13998454  0.58360843  0.09468408    -0.10700
C799        C  0.07861055  0.58816772  0.06888044    -0.14800
C800        C  0.05992809  0.60257306  0.06531460    -0.28700
C801        C  0.16692706  0.61431171  0.11363459    -0.03000
C802        C  0.18483746  0.59977035  0.11959534    -0.39500
H803        H  0.12598944  0.63883045  0.11451370     0.13300
H804        H  0.08804056  0.62839653  0.09673648     0.12900
H805        H  0.11650786  0.56057590  0.07562718     0.12300
H806        H  0.15447520  0.57122960  0.09298518     0.12600
H807        H  0.08075456  0.57331256  0.05674447     0.15300
H808        H  0.05597344  0.61694687  0.07742922     0.14100
H809        H  0.16939248  0.63329875  0.11588989     0.11800
H810        H  0.18237198  0.58071346  0.11951520     0.13800
C811        C  0.11177391  0.42546894  0.93573182     0.19900
C812        C  0.13483329  0.42989192  0.94426951    -0.18200
C813        C  0.15463483  0.42699838  0.92959141    -0.10500
C814        C  0.15177534  0.41986745  0.90586135     0.22100
C815        C  0.12867932  0.41661167  0.89694146    -0.19800
C816        C  0.10883589  0.41914685  0.91175415    -0.10700
C817        C  0.17242155  0.41536950  0.89005273    -0.14800
C818        C  0.19320372  0.40661923  0.89794977    -0.28700
C819        C  0.09174294  0.42677094  0.95290661    -0.03000
C820        C  0.07118440  0.41443922  0.95105078    -0.39500
H821        H  0.13761255  0.43498181  0.96262117     0.13300
H822        H  0.17212425  0.43032792  0.93686288     0.12900
H823        H  0.12601833  0.41142502  0.87860421     0.12300
H824        H  0.09135115  0.41610871  0.90439123     0.12600
H825        H  0.16963511  0.41709065  0.87103591     0.15300
H826        H  0.19568344  0.40300077  0.91670951     0.14100
H827        H  0.09533688  0.43606687  0.96944647     0.11800
H828        H  0.06681851  0.40510032  0.93477999     0.13800
C829        C  0.39455107  0.46118826  0.86252985     0.19900
C830        C  0.37488205  0.46966799  0.84985543    -0.18200
C831        C  0.35376420  0.45671822  0.84866054    -0.10500
C832        C  0.35172464  0.43462134  0.86000290     0.22100
C833        C  0.37158940  0.42581940  0.87228717    -0.19800
C834        C  0.39279252  0.43893008  0.87360803    -0.10700
C835        C  0.32910404  0.42070359  0.86029288    -0.14800
C836        C  0.30972501  0.42589634  0.84720234    -0.28700
C837        C  0.41543077  0.47730145  0.86485749    -0.03000
C838        C  0.43487905  0.47381523  0.87843999    -0.39500
H839        H  0.37558496  0.48683918  0.84129920     0.13300
H840        H  0.33907555  0.46460931  0.83930989     0.12900
H841        H  0.37058831  0.40886567  0.88122916     0.12300
H842        H  0.40744372  0.43170981  0.88360404     0.12600
H843        H  0.32842410  0.40529794  0.87183921     0.15300
H844        H  0.30980657  0.44046264  0.83473251     0.14100
H845        H  0.41387101  0.49434745  0.85601250     0.11800
H846        H  0.43816502  0.45695114  0.88695954     0.13800
C847        C  0.18182636  0.33661829  0.75977066     0.19900
C848        C  0.16860802  0.31548357  0.76127547    -0.18200
C849        C  0.16069460  0.30385979  0.74077502    -0.10500
C850        C  0.16576711  0.31324742  0.71823520     0.22100
C851        C  0.17825923  0.33476123  0.71670895    -0.19800
C852        C  0.18604155  0.34646330  0.73718395    -0.10700
C853        C  0.16038395  0.30020699  0.69596477    -0.14800
C854        C  0.14353635  0.28331560  0.69370179    -0.28700
C855        C  0.19173585  0.34689699  0.78208797    -0.03000
C856        C  0.20850807  0.36399367  0.78291352    -0.39500
H857        H  0.16505168  0.30747124  0.77838857     0.13300
H858        H  0.15153860  0.28708492  0.74267427     0.12900
H859        H  0.18236338  0.34238071  0.69953182     0.12300
H860        H  0.19557802  0.36295252  0.73499744     0.12600
H861        H  0.17106054  0.30478449  0.68052887     0.15300
H862        H  0.13146128  0.27930294  0.70817337     0.14100
H863        H  0.18611979  0.33878823  0.79868025     0.11800
H864        H  0.21499897  0.37238164  0.76688343     0.13800
C865        C  0.40539437  0.58006285  0.87975374     0.19900
C866        C  0.38931688  0.57675915  0.86103690    -0.18200
C867        C  0.36588317  0.58437530  0.86304583    -0.10500
C868        C  0.35799287  0.59565204  0.88387774     0.22100
C869        C  0.37450924  0.60034359  0.90201897    -0.19800
C870        C  0.39800042  0.59249731  0.90008262    -0.10700
C871        C  0.33299008  0.60357936  0.88672508    -0.14800
C872        C  0.31467423  0.59415594  0.87445163    -0.28700
C873        C  0.42874910  0.56823034  0.87803300    -0.03000
C874        C  0.43938005  0.55830395  0.89686812    -0.39500
H875        H  0.39465715  0.56742787  0.84509174     0.13300
H876        H  0.35411889  0.58142290  0.84815887     0.12900
H877        H  0.36906904  0.60959828  0.91796651     0.12300
H878        H  0.41017446  0.59584508  0.91458392     0.12600
H879        H  0.32961701  0.61796435  0.89910897     0.15300
H880        H  0.31743584  0.57939034  0.86244509     0.14100
H881        H  0.43459904  0.56284447  0.86041810     0.11800
H882        H  0.43283672  0.56154175  0.91469641     0.13800
C883        C  0.11024584  0.60129209  0.96327504     0.19900
C884        C  0.13197594  0.59000589  0.96786587    -0.18200
C885        C  0.15254704  0.59619213  0.95540958    -0.10500
C886        C  0.15189847  0.61386630  0.93790683     0.22100
C887        C  0.13026492  0.62527709  0.93330764    -0.19800
C888        C  0.10961044  0.61904654  0.94575131    -0.10700
C889        C  0.17351619  0.62136760  0.92469513    -0.14800
C890        C  0.19221526  0.60710146  0.92064942    -0.28700
C891        C  0.08952012  0.59492093  0.97851340    -0.03000
C892        C  0.06809098  0.60564916  0.97841860    -0.39500
H893        H  0.13318358  0.57657312  0.98153048     0.13300
H894        H  0.16899523  0.58748766  0.95997298     0.12900
H895        H  0.12933973  0.63908435  0.92000204     0.12300
H896        H  0.09344249  0.62841253  0.94167658     0.12600
H897        H  0.17341492  0.63890385  0.91673562     0.15300
H898        H  0.19195133  0.58883212  0.92660367     0.14100
H899        H  0.09272705  0.58153269  0.99198109     0.11800
H900        H  0.06357366  0.61824620  0.96468454     0.13800
C901        C  0.33451734  0.22632059  0.19387918     0.19900
C902        C  0.31626196  0.22635403  0.17695470    -0.18200
C903        C  0.30715518  0.24756778  0.16829405    -0.10500
C904        C  0.31614224  0.26939750  0.17640265     0.22100
C905        C  0.33496534  0.26942464  0.19278472    -0.19800
C906        C  0.34417615  0.24809524  0.20141890    -0.10700
C907        C  0.30453617  0.29214304  0.17023109    -0.14800
C908        C  0.29036362  0.29499004  0.15119040    -0.28700
C909        C  0.34074188  0.20337043  0.20499631    -0.03000
C910        C  0.36054111  0.19914977  0.21765109    -0.39500
H911        H  0.30834913  0.20984070  0.17103586     0.13300
H912        H  0.29223942  0.24663275  0.15625622     0.12900
H913        H  0.34202823  0.28600762  0.19951544     0.12300
H914        H  0.35792551  0.24882961  0.21480351     0.12600
H915        H  0.30706902  0.30690304  0.18241167     0.15300
H916        H  0.28855635  0.28112338  0.13796448     0.14100
H917        H  0.32783283  0.18912806  0.20295331     0.11800
H918        H  0.37447919  0.21238424  0.21918002     0.13800
C919        C  0.28192542  0.16297538  0.33123696     0.19900
C920        C  0.28461227  0.18071287  0.34860122    -0.18200
C921        C  0.26483295  0.19088417  0.35958556    -0.10500
C922        C  0.24176572  0.18343802  0.35346614     0.22100
C923        C  0.23913427  0.16475218  0.33715596    -0.19800
C924        C  0.25890529  0.15460366  0.32614329    -0.10700
C925        C  0.22006896  0.19631549  0.36118518    -0.14800
C926        C  0.21933365  0.21317524  0.37815452    -0.28700
C927        C  0.30338077  0.15553512  0.31763679    -0.03000
C928        C  0.30377258  0.13906134  0.30023515    -0.39500
H929        H  0.30209801  0.18749982  0.35298065     0.13300
H930        H  0.26780764  0.20532791  0.37185188     0.12900
H931        H  0.22158635  0.15861259  0.33212135     0.12300
H932        H  0.25579067  0.14097064  0.31303307     0.12600
H933        H  0.20389734  0.19252314  0.35131412     0.15300
H934        H  0.23456934  0.21684381  0.38934331     0.14100
H935        H  0.31969586  0.16521565  0.32137946     0.11800
H936        H  0.28823662  0.12848011  0.29605647     0.13800
C937        C  0.38160185  0.08137564  0.14912361     0.19900
C938        C  0.40131418  0.08074082  0.13379524    -0.18200
C939        C  0.39973401  0.06978709  0.11143921    -0.10500
C940        C  0.37821504  0.05952168  0.10385652     0.22100
C941        C  0.35836077  0.06090111  0.11888093    -0.19800
C942        C  0.35994221  0.07177099  0.14114363    -0.10700
C943        C  0.37636411  0.04433949  0.08230279    -0.14800
C944        C  0.39191042  0.04380046  0.06402218    -0.28700
C945        C  0.38382595  0.09302970  0.17282414    -0.03000
C946        C  0.36974178  0.08772041  0.19149658    -0.39500
H947        H  0.41814813  0.08823536  0.13938249     0.13300
H948        H  0.41556220  0.06861802  0.10062065     0.12900
H949        H  0.34158245  0.05308073  0.11355028     0.12300
H950        H  0.34409970  0.07267278  0.15196261     0.12600
H951        H  0.36216880  0.03119694  0.08242139     0.15300
H952        H  0.40551746  0.05732456  0.06209203     0.11700
H953        H  0.39744359  0.10657744  0.17488422     0.11800
H954        H  0.35669043  0.07359137  0.19009925     0.13800
C955        C  0.45518035  0.11601751  0.39526383     0.19900
C956        C  0.46032582  0.10204541  0.37522083    -0.18200
C957        C  0.44937208  0.10637482  0.35338684    -0.10500
C958        C  0.43283059  0.12477362  0.35113757     0.22100
C959        C  0.42734763  0.13849204  0.37122091    -0.19800
C960        C  0.43824305  0.13411228  0.39311254    -0.10700
C961        C  0.42122375  0.13050678  0.32816526    -0.14800
C962        C  0.41679626  0.11438754  0.31105313    -0.28700
C963        C  0.46956842  0.11220841  0.41707762    -0.03000
C964        C  0.47149695  0.12754383  0.43544029    -0.39500
H965        H  0.47348124  0.08813706  0.37624457     0.13300
H966        H  0.45440161  0.09573626  0.33821691     0.12900
H967        H  0.41456179  0.15271119  0.36995377     0.12300
H968        H  0.43352089  0.14515769  0.40804946     0.12600
H969        H  0.41414096  0.14827766  0.32616068     0.15300
H970        H  0.42190752  0.09603235  0.31344474     0.14100
H971        H  0.48178336  0.09733604  0.41662414     0.11800
H972        H  0.45954075  0.14240125  0.43734209     0.13800
C973        C  0.38496306  0.91273474  0.14198815     0.19900
C974        C  0.37184242  0.90979329  0.12097920    -0.18200
C975        C  0.37811923  0.92209659  0.10031985    -0.10500
C976        C  0.39761805  0.93781003  0.10040554     0.22100
C977        C  0.41094328  0.94031486  0.12133083    -0.19800
C978        C  0.40465600  0.92809158  0.14190460    -0.10700
C979        C  0.40340623  0.95395908  0.08038293    -0.14800
C980        C  0.38999203  0.95698100  0.06082868    -0.28700
C981        C  0.37734014  0.90002926  0.16377905    -0.03000
C982        C  0.39233453  0.89456262  0.18152975    -0.39500
H983        H  0.35658252  0.89804276  0.12059867     0.13300
H984        H  0.36731692  0.91951932  0.08467819     0.12900
H985        H  0.42584662  0.95249693  0.12206001     0.12300
H986        H  0.41484925  0.93137657  0.15785397     0.12600
H987        H  0.41807411  0.96625374  0.08319565     0.15300
H988        H  0.37567905  0.94487062  0.05645828     0.14100
H989        H  0.35910730  0.89366289  0.16458017     0.11800
H990        H  0.41105995  0.89894242  0.18026495     0.13800
C991        C  0.44196760  0.84089257  0.38788533     0.19900
C992        C  0.44480104  0.82381981  0.36995444    -0.18200
C993        C  0.43429703  0.82678811  0.34767980    -0.10500
C994        C  0.42085572  0.84713710  0.34275304     0.22100
C995        C  0.41747714  0.86389229  0.36087912    -0.19800
C996        C  0.42801068  0.86093839  0.38315898    -0.10700
C997        C  0.40931338  0.85117043  0.31937592    -0.14800
C998        C  0.41566237  0.84025274  0.29905775    -0.28700
C999        C  0.45635557  0.83857920  0.40985169    -0.03000
C1000       C  0.45393738  0.85210472  0.42948981    -0.39500
H1001       H  0.45557056  0.80827110  0.37305638     0.13300
H1002       H  0.43671111  0.81303562  0.33453935     0.12900
H1003       H  0.40704088  0.87962887  0.35762433     0.12300
H1004       H  0.42582177  0.87482472  0.39619720     0.12600
H1005       H  0.39470971  0.86369087  0.31895872     0.15300
H1006       H  0.43043354  0.82801953  0.29862382     0.14100
H1007       H  0.47132353  0.82649154  0.40897891     0.11800
H1008       H  0.43846124  0.86318377  0.43194065     0.13800
C1009       C  0.32338613  0.71711867  0.14739903     0.19900
C1010       C  0.34508627  0.71644381  0.15964648    -0.18200
C1011       C  0.35615307  0.73728848  0.16708634    -0.10500
C1012       C  0.34563894  0.75928701  0.16244882     0.22100
C1013       C  0.32534285  0.76016006  0.14803935    -0.19800
C1014       C  0.31414453  0.73924238  0.14065940    -0.10700
C1015       C  0.35398623  0.78125055  0.17419200    -0.14800
C1016       C  0.36339627  0.78114395  0.19616963    -0.28700
C1017       C  0.30982186  0.69462116  0.14532333    -0.03000
C1018       C  0.28821321  0.69212723  0.13538373    -0.39500
H1019       H  0.35284670  0.69966766  0.16471609     0.13300
H1020       H  0.37238803  0.73606320  0.17727747     0.12900
H1021       H  0.31719178  0.77700168  0.14388847     0.12300
H1022       H  0.29765191  0.74065462  0.13099300     0.12600
H1023       H  0.34950707  0.79804073  0.16592959     0.15300
H1024       H  0.36673971  0.76458815  0.20532310     0.14100
H1025       H  0.31721657  0.67947683  0.15463827     0.11800
H1026       H  0.28025927  0.70603265  0.12484114     0.13800
C1027       C  0.57179216  0.10744378  0.39839503     0.19900
C1028       C  0.55991852  0.10351060  0.37683751    -0.18200
C1029       C  0.57109921  0.10811740  0.35521693    -0.10500
C1030       C  0.59463404  0.11641387  0.35469624     0.22100
C1031       C  0.60686808  0.11947370  0.37628863    -0.19800
C1032       C  0.59544051  0.11535014  0.39804141    -0.10700
C1033       C  0.60703436  0.12129350  0.33191665    -0.14800
C1034       C  0.59578960  0.12844183  0.31202992    -0.28700
C1035       C  0.55820955  0.10396079  0.42057630    -0.03000
C1036       C  0.55814386  0.11986295  0.43844210    -0.39500
H1037       H  0.54165325  0.09738086  0.37673879     0.13300
H1038       H  0.56136142  0.10486691  0.33896728     0.12900
H1039       H  0.62515040  0.12551108  0.37631146     0.12300
H1040       H  0.60502536  0.11825291  0.41446329     0.12600
H1041       H  0.62627978  0.11997156  0.33182142     0.15300
H1042       H  0.57681194  0.13166766  0.31218735     0.14100
H1043       H  0.54377891  0.09109742  0.41979350     0.11800
H1044       H  0.57192924  0.13331524  0.43970364     0.13800
C1045       C  0.63475056  0.05624870  0.10789138     0.19900
C1046       C  0.61507389  0.06801621  0.11767229    -0.18200
C1047       C  0.61687088  0.07927781  0.13976673    -0.10500
C1048       C  0.63836018  0.07887599  0.15255017     0.22100
C1049       C  0.65813032  0.06779016  0.14234005    -0.19800
C1050       C  0.65628600  0.05641759  0.12038802    -0.10700
C1051       C  0.64130548  0.09054921  0.17603353    -0.14800
C1052       C  0.62323905  0.09643565  0.19051222    -0.28700
C1053       C  0.63266703  0.04081363  0.08668345    -0.03000
C1054       C  0.61533892  0.04226948  0.07026187    -0.39500
H1055       H  0.59804256  0.06781425  0.10880113     0.13300
H1056       H  0.60140033  0.08823663  0.14664400     0.12900
H1057       H  0.67496932  0.06747309  0.15163317     0.12300
H1058       H  0.67163041  0.04725895  0.11336518     0.12600
H1059       H  0.65934337  0.09481109  0.18150166     0.15300
H1060       H  0.60502275  0.09224954  0.18584627     0.14100
H1061       H  0.64499547  0.02606499  0.08558038     0.11800
H1062       H  0.60361025  0.05744893  0.06961074     0.13800
C1063       C  0.73280231  0.17484705  0.30817563     0.19900
C1064       C  0.73381037  0.19554554  0.32198150    -0.18200
C1065       C  0.75519863  0.20338756  0.33172180    -0.10500
C1066       C  0.77615872  0.19049350  0.32806891     0.22100
C1067       C  0.77510013  0.16942118  0.31480442    -0.19800
C1068       C  0.75363557  0.16154523  0.30502273    -0.10700
C1069       C  0.79968247  0.19963855  0.33568956    -0.14800
C1070       C  0.80289019  0.21639663  0.35246528    -0.28700
C1071       C  0.70975837  0.16871809  0.29692506    -0.03000
C1072       C  0.70640039  0.15197883  0.28019954    -0.39500
H1073       H  0.71806360  0.20617430  0.32466437     0.13300
H1074       H  0.75527999  0.22003766  0.34122352     0.12900
H1075       H  0.79104700  0.15922818  0.31164142     0.12300
H1076       H  0.75366878  0.14530957  0.29484668     0.12600
H1077       H  0.81508261  0.19282777  0.32629517     0.15300
H1078       H  0.78814485  0.22284357  0.36299647     0.14100
H1079       H  0.69467224  0.17953730  0.30205840     0.11800
H1080       H  0.72062885  0.14045785  0.27446431     0.13800
C1081       C  0.55775336  0.87686773  0.39949386     0.19900
C1082       C  0.55744121  0.89442790  0.38185766    -0.18200
C1083       C  0.56897624  0.89092131  0.36018311    -0.10500
C1084       C  0.58114970  0.86968442  0.35572118     0.22100
C1085       C  0.58215876  0.85247558  0.37363096    -0.19800
C1086       C  0.57068557  0.85600342  0.39533540    -0.10700
C1087       C  0.59171469  0.86418647  0.33223001    -0.14800
C1088       C  0.59877443  0.88082421  0.31667506    -0.28700
C1089       C  0.54103315  0.87919769  0.41970309    -0.03000
C1090       C  0.53976186  0.86412751  0.43819995    -0.39500
H1091       H  0.54726148  0.91047242  0.38440877     0.13300
H1092       H  0.56729816  0.90438732  0.34665196     0.12900
H1093       H  0.59133942  0.83592780  0.37057448     0.12300
H1094       H  0.57097120  0.84174924  0.40811541     0.12600
H1095       H  0.59466109  0.84564102  0.32796355     0.15300
H1096       H  0.59765525  0.89948359  0.32113290     0.14100
H1097       H  0.52677610  0.89196582  0.41755680     0.11800
H1098       H  0.55409028  0.85201572  0.44218364     0.13800
C1099       C  0.59934805  0.93850014  0.10750712     0.19900
C1100       C  0.58268366  0.93356068  0.12535209    -0.18200
C1101       C  0.58945191  0.92196581  0.14619927    -0.10500
C1102       C  0.61331251  0.91549598  0.14988026     0.22100
C1103       C  0.62978105  0.91974013  0.13160393    -0.19800
C1104       C  0.62294054  0.93113521  0.11066888    -0.10700
C1105       C  0.62200927  0.90463421  0.17237686    -0.14800
C1106       C  0.60902424  0.90236620  0.19235247    -0.28700
C1107       C  0.59262975  0.95475051  0.08798724    -0.03000
C1108       C  0.60422909  0.95624209  0.06709619    -0.39500
H1109       H  0.56444835  0.93927793  0.12341874     0.13300
H1110       H  0.57590774  0.91861217  0.15934883     0.12900
H1111       H  0.64823663  0.91489091  0.13382621     0.12300
H1112       H  0.63642998  0.93526578  0.09760954     0.12600
H1113       H  0.64017214  0.89818087  0.17251275     0.15300
H1114       H  0.59074633  0.90814856  0.19310867     0.14100
H1115       H  0.57926835  0.96799712  0.09208723     0.11800
H1116       H  0.61652720  0.94248532  0.06173591     0.13800
C1117       C  0.33069498  0.24265572  0.81035126     0.19900
C1118       C  0.31551592  0.24307857  0.83019728    -0.18200
C1119       C  0.30472700  0.26419061  0.83751661    -0.10500
C1120       C  0.30895444  0.28532876  0.82498865     0.22100
C1121       C  0.32473908  0.28498345  0.80569868    -0.19800
C1122       C  0.33542787  0.26399572  0.79839446    -0.10700
C1123       C  0.29651683  0.30792977  0.82995281    -0.14800
C1124       C  0.28119964  0.31215264  0.84786321    -0.28700
C1125       C  0.33909483  0.21942004  0.80119209    -0.03000
C1126       C  0.35602418  0.21682230  0.78444042    -0.39500
H1127       H  0.31143535  0.22686482  0.83965736     0.13300
H1128       H  0.29265285  0.26360346  0.85242257     0.12900
H1129       H  0.32829393  0.30097206  0.79565315     0.12300
H1130       H  0.34648107  0.26460702  0.78273222     0.12600
H1131       H  0.29994457  0.32212453  0.81735795     0.15300
H1132       H  0.27733774  0.29894154  0.86128060     0.14100
H1133       H  0.32998536  0.20371474  0.80773644     0.11800
H1134       H  0.36631389  0.23182020  0.77817715     0.13800
C1135       C  0.27533418  0.16542808  0.67651007     0.19900
C1136       C  0.27467416  0.18468740  0.66074869    -0.18200
C1137       C  0.25321057  0.19248016  0.65119035    -0.10500
C1138       C  0.23179598  0.18096959  0.65700092     0.22100
C1139       C  0.23256104  0.16097661  0.67179724    -0.19800
C1140       C  0.25407205  0.15315594  0.68137420    -0.10700
C1141       C  0.20828052  0.19073873  0.65022297    -0.14800
C1142       C  0.20491269  0.20649546  0.63260335    -0.28700
C1143       C  0.29819278  0.16041471  0.68875999    -0.03000
C1144       C  0.30095819  0.14545402  0.70720974    -0.39500
H1145       H  0.29073192  0.19450178  0.65663804     0.13300
H1146       H  0.25347546  0.20823149  0.64030080     0.12900
H1147       H  0.21632352  0.15177057  0.67654663     0.12300
H1148       H  0.25366563  0.13799767  0.69304466     0.12600
H1149       H  0.19314608  0.18539930  0.66097877     0.15300
H1150       H  0.21932040  0.21141070  0.62080038     0.14100
H1151       H  0.31331730  0.17124602  0.68350277     0.11800
H1152       H  0.28667195  0.13400267  0.71313278     0.13800
C1153       C  0.39307764  0.06458880  0.89201219     0.19900
C1154       C  0.40899259  0.06590345  0.87285786    -0.18200
C1155       C  0.40281185  0.07753945  0.85188763    -0.10500
C1156       C  0.38043405  0.08824196  0.84953294     0.22100
C1157       C  0.36452939  0.08710287  0.86873872    -0.19800
C1158       C  0.37076158  0.07548184  0.88981091    -0.10700
C1159       C  0.37281870  0.09984463  0.82705411    -0.14800
C1160       C  0.38821080  0.10895573  0.81116194    -0.28700
C1161       C  0.39913835  0.04866088  0.91210572    -0.03000
C1162       C  0.38728145  0.04721172  0.93290468    -0.39500
H1163       H  0.42606733  0.05719344  0.87382433     0.13300
H1164       H  0.41532513  0.07730051  0.83732445     0.12900
H1165       H  0.34708233  0.09496906  0.86731405     0.12300
H1166       H  0.35769171  0.07424325  0.90382944     0.12600
H1167       H  0.35388556  0.10192328  0.82400500     0.15300
H1168       H  0.40714092  0.10867541  0.81466427     0.14100
H1169       H  0.41283362  0.03557559  0.90862042     0.11800
H1170       H  0.37458994  0.06067729  0.93801756     0.13800
C1171       C  0.44966772  0.12817248  0.60545177     0.19900
C1172       C  0.44670799  0.11044766  0.62265464    -0.18200
C1173       C  0.43550470  0.11529834  0.64424628    -0.10500
C1174       C  0.42705946  0.13822263  0.64926490     0.22100
C1175       C  0.42939463  0.15576668  0.63170307    -0.19800
C1176       C  0.44060121  0.15087918  0.61006134    -0.10700
C1177       C  0.41569061  0.14476229  0.67230389    -0.14800
C1178       C  0.41249814  0.12985786  0.69071405    -0.28700
C1179       C  0.46539356  0.12312180  0.58492066    -0.03000
C1180       C  0.46810311  0.13709904  0.56569785    -0.39500
H1181       H  0.45374234  0.09285965  0.61966021     0.13300
H1182       H  0.43400615  0.10100149  0.65686083     0.12900
H1183       H  0.42299537  0.17354841  0.63494686     0.12300
H1184       H  0.44301068  0.16520388  0.59755371     0.12600
H1185       H  0.40882247  0.16266726  0.67390044     0.15300
H1186       H  0.41824895  0.11161810  0.68984862     0.14100
H1187       H  0.47739239  0.10819871  0.58689299     0.11800
H1188       H  0.45580198  0.15133283  0.56194858     0.13800
C1189       C  0.37463741  0.91777352  0.84886870     0.19900
C1190       C  0.35907548  0.91961157  0.86829221    -0.18200
C1191       C  0.36588008  0.93168913  0.88895660    -0.10500
C1192       C  0.38849585  0.94225738  0.89058799     0.22100
C1193       C  0.40416601  0.94006505  0.87134074    -0.19800
C1194       C  0.39738499  0.92803349  0.85072634    -0.10700
C1195       C  0.39527418  0.95848096  0.91026974    -0.14800
C1196       C  0.38384101  0.96028153  0.93123545    -0.28700
C1197       C  0.36614382  0.90586831  0.82679836    -0.03000
C1198       C  0.38064492  0.89798331  0.80952313    -0.39500
H1199       H  0.34139394  0.91204000  0.86731251     0.13300
H1200       H  0.35300467  0.93352462  0.90307859     0.12900
H1201       H  0.42151907  0.94840560  0.87193531     0.12300
H1202       H  0.40979517  0.92767657  0.83609777     0.12600
H1203       H  0.40949104  0.97105015  0.90656026     0.15300
H1204       H  0.37068518  0.94720837  0.93646257     0.14100
H1205       H  0.34718253  0.90256629  0.82516068     0.11800
H1206       H  0.39974723  0.89950942  0.81126367     0.13800
C1207       C  0.42162168  0.87129922  0.59817571     0.19900
C1208       C  0.41885600  0.88996808  0.61441117    -0.18200
C1209       C  0.40942236  0.88596243  0.63700596    -0.10500
C1210       C  0.40236274  0.86302639  0.64395528     0.22100
C1211       C  0.40412130  0.84454089  0.62729888    -0.19800
C1212       C  0.41364909  0.84855783  0.60467588    -0.10700
C1213       C  0.39401077  0.85731878  0.66846801    -0.14800
C1214       C  0.38895198  0.87363080  0.68518890    -0.28700
C1215       C  0.43669906  0.87558193  0.57692432    -0.03000
C1216       C  0.44074429  0.85974096  0.55945076    -0.39500
H1217       H  0.42511392  0.90760700  0.61001713     0.13300
H1218       H  0.40870163  0.90082980  0.64904589     0.12900
H1219       H  0.39879886  0.82670603  0.63206505     0.12300
H1220       H  0.41585745  0.83354488  0.59296150     0.12600
H1221       H  0.39131258  0.83873621  0.67278022     0.15300
H1222       H  0.39011241  0.89237540  0.68136252     0.14100
H1223       H  0.44795147  0.89129975  0.57751440     0.11800
H1224       H  0.42932574  0.84441966  0.55698966     0.13800
C1225       C  0.30971131  0.72377173  0.84175105     0.19900
C1226       C  0.32714247  0.72276250  0.82397425    -0.18200
C1227       C  0.33694572  0.74341630  0.81452566    -0.10500
C1228       C  0.32953442  0.76570369  0.82275779     0.22100
C1229       C  0.31315206  0.76669881  0.84158416    -0.19800
C1230       C  0.30327510  0.74596553  0.85102221    -0.10700
C1231       C  0.33609018  0.78811112  0.81054681    -0.14800
C1232       C  0.35221486  0.79001681  0.79292323    -0.28700
C1233       C  0.29719046  0.70144686  0.84789494    -0.03000
C1234       C  0.28171531  0.69851362  0.86588925    -0.39500
H1235       H  0.33246859  0.70588389  0.81655180     0.13300
H1236       H  0.34933545  0.74161219  0.80001244     0.12900
H1237       H  0.30712119  0.78363580  0.84828593     0.12300
H1238       H  0.28982311  0.74758538  0.86461183     0.12600
H1239       H  0.32591419  0.80370818  0.81539902     0.15300
H1240       H  0.36356558  0.77538236  0.78800759     0.14100
H1241       H  0.30056470  0.68642696  0.83627462     0.11800
H1242       H  0.27861864  0.71232833  0.87889677     0.13800
C1243       C  0.54381137  0.85459711  0.60764649     0.19900
C1244       C  0.54502340  0.83681753  0.62497604    -0.18200
C1245       C  0.55689254  0.84080697  0.64635950    -0.10500
C1246       C  0.56764276  0.86286498  0.65098827     0.22100
C1247       C  0.56731457  0.88032830  0.63328727    -0.19800
C1248       C  0.55536390  0.87636055  0.61186614    -0.10700
C1249       C  0.57992919  0.86791415  0.67374868    -0.14800
C1250       C  0.57452093  0.85682406  0.69420392    -0.28700
C1251       C  0.52803399  0.85058998  0.58695394    -0.03000
C1252       C  0.52738060  0.86428459  0.56741232    -0.39500
H1253       H  0.53632684  0.81988536  0.62215645     0.13300
H1254       H  0.55761055  0.82654025  0.65913646     0.12900
H1255       H  0.57574488  0.89735088  0.63632844     0.12300
H1256       H  0.55450136  0.89070147  0.59920289     0.12600
H1257       H  0.59397676  0.88118451  0.67361125     0.15300
H1258       H  0.56011204  0.84402642  0.69493942     0.14100
H1259       H  0.51509531  0.83630473  0.58850654     0.11800
H1260       H  0.54082590  0.87770807  0.56423271     0.13800
C1261       C  0.58811960  0.94615832  0.89583071     0.19900
C1262       C  0.57504436  0.94941498  0.87483801    -0.18200
C1263       C  0.58127521  0.93768381  0.85385881    -0.10500
C1264       C  0.60081460  0.92223600  0.85339895     0.22100
C1265       C  0.61331674  0.91829587  0.87460490    -0.19800
C1266       C  0.60713215  0.93007589  0.89555831    -0.10700
C1267       C  0.60929666  0.91023727  0.83139278    -0.14800
C1268       C  0.59787639  0.91023854  0.81035848    -0.28700
C1269       C  0.58316436  0.96213805  0.91631295    -0.03000
C1270       C  0.59490422  0.96195886  0.93723938    -0.39500
H1271       H  0.56041908  0.96180936  0.87441082     0.13300
H1272       H  0.57108514  0.94143925  0.83808253     0.12900
H1273       H  0.62836340  0.90641249  0.87486815     0.12300
H1274       H  0.61793282  0.92705355  0.91108641     0.12600
H1275       H  0.62557929  0.90007254  0.83285113     0.15300
H1276       H  0.58102963  0.91911762  0.80817271     0.14100
H1277       H  0.57080514  0.97651718  0.91306292     0.11800
H1278       H  0.60626653  0.94727925  0.94193159     0.13800
C1279       C  0.60901832  0.09720406  0.86167790     0.19900
C1280       C  0.62600034  0.09268402  0.87935313    -0.18200
C1281       C  0.62017248  0.07931596  0.89944354    -0.10500
C1282       C  0.59703574  0.07030542  0.90240904     0.22100
C1283       C  0.57985613  0.07548690  0.88514917    -0.19800
C1284       C  0.58566656  0.08887150  0.86508646    -0.10700
C1285       C  0.59081992  0.05306324  0.92135992    -0.14800
C1286       C  0.60413867  0.04866188  0.94074773    -0.28700
C1287       C  0.61651723  0.11080973  0.84027212    -0.03000
C1288       C  0.60348387  0.11305588  0.82033656    -0.39500
H1289       H  0.64407507  0.09901338  0.87732300     0.13300
H1290       H  0.63411629  0.07534001  0.91198401     0.12900
H1291       H  0.56191921  0.06870311  0.88694007     0.12300
H1292       H  0.57175289  0.09242698  0.85240760     0.12600
H1293       H  0.57521409  0.04205967  0.91827871     0.15300
H1294       H  0.61888087  0.06017611  0.94539809     0.14100
H1295       H  0.63376163  0.11951657  0.84100737     0.11800
H1296       H  0.58617026  0.10480095  0.81870001     0.13800
C1297       C  0.56943179  0.14949066  0.60794292     0.19900
C1298       C  0.56702101  0.16852501  0.62382455    -0.18200
C1299       C  0.57516878  0.16690642  0.64715496    -0.10500
C1300       C  0.58598384  0.14606217  0.65533774     0.22100
C1301       C  0.58940419  0.12734699  0.63920305    -0.19800
C1302       C  0.58109916  0.12892109  0.61576323    -0.10700
C1303       C  0.59495900  0.14382205  0.68013068    -0.14800
C1304       C  0.58722198  0.15729271  0.69834955    -0.28700
C1305       C  0.55676776  0.15121170  0.58482338    -0.03000
C1306       C  0.55484727  0.13387915  0.56841588    -0.39500
H1307       H  0.55818556  0.18462641  0.61834610     0.13300
H1308       H  0.57306362  0.18216578  0.65856354     0.12900
H1309       H  0.59809476  0.11125038  0.64490125     0.12300
H1310       H  0.58331702  0.11379182  0.60421229     0.12600
H1311       H  0.60885397  0.13093403  0.68336615     0.15300
H1312       H  0.57285266  0.16974486  0.69583025     0.14100
H1313       H  0.54535764  0.16656654  0.58265028     0.11800
H1314       H  0.56619473  0.11843538  0.56871670     0.13800
C1315       C  0.72067591  0.18882113  0.70168967     0.19900
C1316       C  0.71987912  0.20359487  0.68171502    -0.18200
C1317       C  0.74060069  0.20955922  0.66947819    -0.10500
C1318       C  0.76272887  0.20105582  0.67724448     0.22100
C1319       C  0.76338729  0.18577823  0.69692792    -0.19800
C1320       C  0.74260669  0.17971496  0.70908312    -0.10700
C1321       C  0.78567992  0.20902253  0.66687962    -0.14800
C1322       C  0.78799026  0.22465179  0.64896419    -0.28700
C1323       C  0.69851676  0.18486586  0.71522552    -0.03000
C1324       C  0.69427854  0.16595605  0.72915586    -0.39500
H1325       H  0.70314202  0.21087361  0.67575378     0.13300
H1326       H  0.73901116  0.22131985  0.65447688     0.12900
H1327       H  0.78016747  0.17907800  0.70342078     0.12300
H1328       H  0.74392997  0.16870799  0.72473458     0.12600
H1329       H  0.80169685  0.20274137  0.67556264     0.15300
H1330       H  0.77278222  0.23117124  0.63926554     0.14100
H1331       H  0.68466111  0.19803777  0.71302692     0.11800
H1332       H  0.70706863  0.15171569  0.73062093     0.13800
C1333       C  0.15444461  0.61778394  0.46495475     0.19900
C1334       C  0.17198712  0.63488965  0.46974541    -0.18200
C1335       C  0.17320668  0.65593019  0.45677323    -0.10500
C1336       C  0.15664944  0.66057131  0.43867831     0.22100
C1337       C  0.13949342  0.64314803  0.43339995    -0.19800
C1338       C  0.13828890  0.62202148  0.44641492    -0.10700
C1339       C  0.15661612  0.68309929  0.42482601    -0.14800
C1340       C  0.16967182  0.70247734  0.43026526    -0.28700
C1341       C  0.15241531  0.59727098  0.48142057    -0.03000
C1342       C  0.13786206  0.57835418  0.47874321    -0.39500
H1343       H  0.18464686  0.63215747  0.48395431     0.13300
H1344       H  0.18715712  0.66834408  0.46120299     0.12900
H1345       H  0.12660098  0.64610922  0.41945593     0.12300
H1346       H  0.12425558  0.60954459  0.44233313     0.12600
H1347       H  0.14509107  0.68378675  0.40935940     0.15300
H1348       H  0.18131654  0.70276930  0.44554954     0.14100
H1349       H  0.16267437  0.59851780  0.49774286     0.11800
H1350       H  0.12838073  0.57536273  0.46226126     0.13800
C1351       C  0.07950357  0.90115089  0.40909249     0.19900
C1352       C  0.07827315  0.88107869  0.42376008    -0.18200
C1353       C  0.09031444  0.86029455  0.41787418    -0.10500
C1354       C  0.10418584  0.85906725  0.39711437     0.22100
C1355       C  0.10596895  0.87937087  0.38276172    -0.19800
C1356       C  0.09379338  0.90018230  0.38860975    -0.10700
C1357       C  0.11662262  0.83700565  0.38948060    -0.14800
C1358       C  0.12016629  0.81807507  0.40359717    -0.28700
C1359       C  0.06311410  0.92111646  0.41435418    -0.03000
C1360       C  0.06145131  0.94142955  0.40183537    -0.39500
H1361       H  0.06718271  0.88115117  0.43948720     0.13300
H1362       H  0.08794584  0.84515680  0.42934811     0.12900
H1363       H  0.11651370  0.87900844  0.36667453     0.12300
H1364       H  0.09504467  0.91501529  0.37656408     0.12600
H1365       H  0.12435420  0.83684006  0.37178664     0.15300
H1366       H  0.11423947  0.81814649  0.42189012     0.14100
H1367       H  0.04976971  0.91783370  0.42794600     0.11800
H1368       H  0.07494154  0.94640502  0.38903683     0.13800
C1369       C  0.28435876  0.85320421  0.31408670     0.19900
C1370       C  0.28928374  0.84700976  0.33770568    -0.18200
C1371       C  0.27092812  0.84007461  0.35298092    -0.10500
C1372       C  0.24733521  0.83969622  0.34484922     0.22100
C1373       C  0.24237404  0.84749849  0.32172139    -0.19800
C1374       C  0.26070370  0.85398379  0.30638744    -0.10700
C1375       C  0.22748198  0.82961783  0.35882745    -0.14800
C1376       C  0.23002114  0.81204136  0.37476631    -0.28700
C1377       C  0.30420035  0.85773358  0.29751672    -0.03000
C1378       C  0.30398709  0.84929618  0.27518622    -0.39500
H1379       H  0.30744158  0.84657707  0.34402201     0.13300
H1380       H  0.27528828  0.83469833  0.37088202     0.12900
H1381       H  0.22431139  0.84754466  0.31510535     0.12300
H1382       H  0.25641510  0.85923821  0.28841043     0.12600
H1383       H  0.20970696  0.83400431  0.35277023     0.15300
H1384       H  0.24743010  0.80672157  0.38095846     0.14100
H1385       H  0.32044188  0.86542261  0.30463855     0.11800
H1386       H  0.28880582  0.83923859  0.26873853     0.13800
C1387       C  0.18219661  0.68809726  0.29407481     0.19900
C1388       C  0.16831112  0.68058020  0.27483219    -0.18200
C1389       C  0.17801915  0.66586547  0.25735375    -0.10500
C1390       C  0.20174592  0.65821842  0.25901734     0.22100
C1391       C  0.21493517  0.66413574  0.27926834    -0.19800
C1392       C  0.20532779  0.67903662  0.29658566    -0.10700
C1393       C  0.21367683  0.64574676  0.23911174    -0.14800
C1394       C  0.20914017  0.65175028  0.21652124    -0.28700
C1395       C  0.17251965  0.70546292  0.31134965    -0.03000
C1396       C  0.18655679  0.72222625  0.32090500    -0.39500
H1397       H  0.15026937  0.68683778  0.27284845     0.13300
H1398       H  0.16712563  0.66090275  0.24229834     0.12900
H1399       H  0.23308231  0.65813843  0.28115167     0.12300
H1400       H  0.21614031  0.68372401  0.31178999     0.12600
H1401       H  0.22827057  0.63383405  0.24300702     0.15300
H1402       H  0.19590965  0.66518367  0.21280583     0.14100
H1403       H  0.15387596  0.70444773  0.31622024     0.11800
H1404       H  0.20494355  0.72357660  0.31519167     0.13800
C1405       C  0.24425282  0.85110560  0.71029330     0.19900
C1406       C  0.22366964  0.84895270  0.72409895    -0.18200
C1407       C  0.20362890  0.83742694  0.71493569    -0.10500
C1408       C  0.20393763  0.82800491  0.69173971     0.22100
C1409       C  0.22364321  0.83243171  0.67721154    -0.19800
C1410       C  0.24367291  0.84382614  0.68639467    -0.10700
C1411       C  0.18469673  0.81246252  0.68258193    -0.14800
C1412       C  0.17191525  0.79836090  0.69694129    -0.28700
C1413       C  0.26679273  0.85849706  0.72169261    -0.03000
C1414       C  0.28694526  0.84702709  0.71650516    -0.39500
H1415       H  0.22358291  0.85488385  0.74240230     0.13300
H1416       H  0.18824024  0.83532904  0.72625993     0.12900
H1417       H  0.22406002  0.82590478  0.65911645     0.12300
H1418       H  0.25906922  0.84606245  0.67508263     0.12600
H1419       H  0.18216674  0.81126382  0.66348181     0.15300
H1420       H  0.17476320  0.79878684  0.71599670     0.14100
H1421       H  0.26640410  0.87118201  0.73621452     0.11800
H1422       H  0.28670828  0.83292218  0.70335676     0.13800
C1423       C  0.16609381  0.65308263  0.78980034     0.19900
C1424       C  0.14981274  0.67156169  0.79308538    -0.18200
C1425       C  0.13729682  0.68092516  0.77393695    -0.10500
C1426       C  0.14065657  0.67184256  0.75094465     0.22100
C1427       C  0.15585917  0.65241241  0.74783707    -0.19800
C1428       C  0.16843121  0.64302196  0.76705329    -0.10700
C1429       C  0.13188377  0.68445081  0.72959975    -0.14800
C1430       C  0.11514175  0.70143819  0.72995742    -0.28700
C1431       C  0.18109744  0.64631379  0.81037823    -0.03000
C1432       C  0.20062217  0.63262144  0.80935729    -0.39500
H1433       H  0.14758140  0.67962534  0.81041054     0.13300
H1434       H  0.12619926  0.69616371  0.77714737     0.12900
H1435       H  0.15879860  0.64511126  0.73028145     0.12300
H1436       H  0.18035729  0.62845049  0.76375543     0.12600
H1437       H  0.14146290  0.68121942  0.71314682     0.15300
H1438       H  0.10415441  0.70433130  0.74549468     0.14100
H1439       H  0.17673550  0.65465824  0.82723216     0.11800
H1440       H  0.20589425  0.62378940  0.79311257     0.13800
C1441       C  0.10973948  0.61476409  0.58038900     0.19900
C1442       C  0.09530762  0.63447527  0.57583356    -0.18200
C1443       C  0.09847431  0.65575020  0.58815050    -0.10500
C1444       C  0.11615185  0.65789720  0.60567791     0.22100
C1445       C  0.13025592  0.63799152  0.61068347    -0.19800
C1446       C  0.12717110  0.61666715  0.59819282    -0.10700
C1447       C  0.12067577  0.68042477  0.61895408    -0.14800
C1448       C  0.10629219  0.69948492  0.61852968    -0.28700
C1449       C  0.10765217  0.59410984  0.56398235    -0.03000
C1450       C  0.12117512  0.57439114  0.56431405    -0.39500
H1451       H  0.08193198  0.63370415  0.56202637     0.13300
H1452       H  0.08733261  0.67046896  0.58327406     0.12900
H1453       H  0.14399931  0.63903908  0.62410144     0.12300
H1454       H  0.13890730  0.60210445  0.60214092     0.12600
H1455       H  0.13595864  0.68085531  0.63074078     0.15300
H1456       H  0.09000047  0.69935077  0.60834937     0.14100
H1457       H  0.09604011  0.59653142  0.54874813     0.11800
H1458       H  0.13221368  0.57016087  0.57946821     0.13800
C1459       C  0.06733702  0.85813335  0.65584272     0.19900
C1460       C  0.07397295  0.87474970  0.63849631    -0.18200
C1461       C  0.06195523  0.89628575  0.63640494    -0.10500
C1462       C  0.04311220  0.90170015  0.65187145     0.22100
C1463       C  0.03768812  0.88578670  0.67027908    -0.19800
C1464       C  0.04962663  0.86426190  0.67229458    -0.10700
C1465       C  0.02692266  0.92210493  0.64824462    -0.14800
C1466       C  0.02742574  0.93705141  0.62956963    -0.28700
C1467       C  0.07944317  0.83480475  0.65628728    -0.03000
C1468       C  0.07038451  0.81521635  0.66665340    -0.39500
H1469       H  0.08798475  0.87070499  0.62596541     0.13300
H1470       H  0.06708840  0.90809803  0.62221642     0.12900
H1471       H  0.02350333  0.88960975  0.68268938     0.12300
H1472       H  0.04472692  0.85248196  0.68662270     0.12600
H1473       H  0.01193996  0.92338973  0.66038068     0.15300
H1474       H  0.04214774  0.93737030  0.61720799     0.14100
H1475       H  0.09645606  0.83362496  0.64723998     0.11800
H1476       H  0.05326414  0.81557485  0.67545136     0.13800
C1477       C  0.92301135  0.89684772  0.60977051     0.19900
C1478       C  0.92261647  0.87870688  0.59268208    -0.18200
C1479       C  0.91021390  0.85758432  0.59675574    -0.10500
C1480       C  0.89783556  0.85405068  0.61818926     0.22100
C1481       C  0.89747994  0.87258968  0.63490266    -0.19800
C1482       C  0.90990214  0.89375521  0.63080204    -0.10700
C1483       C  0.88608449  0.83113466  0.62444129    -0.14800
C1484       C  0.88234242  0.81306355  0.60917879    -0.28700
C1485       C  0.94014153  0.91671548  0.60646452    -0.03000
C1486       C  0.94078831  0.93689208  0.61936497    -0.39500
H1487       H  0.93277086  0.88049739  0.57643333     0.13300
H1488       H  0.91130180  0.84389525  0.58339222     0.12900
H1489       H  0.88811531  0.87042537  0.65157502     0.12300
H1490       H  0.91013651  0.90703544  0.64465460     0.12600
H1491       H  0.87968420  0.82924882  0.64256680     0.15300
H1492       H  0.88718020  0.81454992  0.59062330     0.14100
H1493       H  0.95444982  0.91367489  0.59385144     0.11800
H1494       H  0.92627456  0.94157234  0.63109996     0.13800
C1495       C  0.85404729  0.60378715  0.55611763     0.19900
C1496       C  0.83596368  0.62037233  0.55228885    -0.18200
C1497       C  0.83563103  0.64179649  0.56466315    -0.10500
C1498       C  0.85357790  0.64728275  0.58117193     0.22100
C1499       C  0.87090184  0.63014395  0.58605559    -0.19800
C1500       C  0.87126544  0.60864318  0.57360641    -0.10700
C1501       C  0.85455953  0.67041589  0.59386807    -0.14800
C1502       C  0.84336485  0.69003615  0.58626809    -0.28700
C1503       C  0.85572418  0.58355202  0.53927892    -0.03000
C1504       C  0.87242405  0.56653185  0.53973247    -0.39500
H1505       H  0.82236829  0.61708005  0.53906383     0.13300
H1506       H  0.82128497  0.65391944  0.56107556     0.12900
H1507       H  0.88467125  0.63371495  0.59902015     0.12300
H1508       H  0.88556856  0.59647359  0.57717014     0.12600
H1509       H  0.86494536  0.67133134  0.61011326     0.15300
H1510       H  0.83319040  0.68989089  0.56994151     0.14100
H1511       H  0.84405236  0.58414872  0.52389792     0.11800
H1512       H  0.88378295  0.56407212  0.55504610     0.13800
C1513       C  0.70898765  0.84169098  0.68105659     0.19900
C1514       C  0.70725630  0.82664501  0.66125135    -0.18200
C1515       C  0.72757110  0.81735304  0.65061144    -0.10500
C1516       C  0.75017170  0.82288762  0.65971058     0.22100
C1517       C  0.75194538  0.83904447  0.67863621    -0.19800
C1518       C  0.73161473  0.84830983  0.68930039    -0.10700
C1519       C  0.77216666  0.81087452  0.65175231    -0.14800
C1520       C  0.77307273  0.79282318  0.63610300    -0.28700
C1521       C  0.68686055  0.84751932  0.69404255    -0.03000
C1522       C  0.68508263  0.86329025  0.71193282    -0.39500
H1523       H  0.69002657  0.82130258  0.65450977     0.13300
H1524       H  0.72521794  0.80531431  0.63587994     0.12900
H1525       H  0.76913331  0.84369070  0.68597461     0.12300
H1526       H  0.73382932  0.85960711  0.70465083     0.12600
H1527       H  0.78846605  0.81607265  0.66074938     0.15300
H1528       H  0.75762239  0.78705727  0.62619420     0.14100
H1529       H  0.67124326  0.83712711  0.68935200     0.11800
H1530       H  0.69965211  0.87500710  0.71658352     0.13800
C1531       C  0.87533936  0.60952868  0.43566103     0.19900
C1532       C  0.85685539  0.62615070  0.43561053    -0.18200
C1533       C  0.85972514  0.64827028  0.42490850    -0.10500
C1534       C  0.88128427  0.65443942  0.41391216     0.22100
C1535       C  0.89946366  0.63747804  0.41296779    -0.19800
C1536       C  0.89665847  0.61529299  0.42388736    -0.10700
C1537       C  0.88477156  0.67793456  0.40233660    -0.14800
C1538       C  0.87285754  0.69757682  0.40889455    -0.28700
C1539       C  0.87203857  0.58783244  0.45034628    -0.03000
C1540       C  0.88828790  0.57070395  0.45399314    -0.39500
H1541       H  0.84018069  0.62222904  0.44440324     0.13300
H1542       H  0.84490132  0.66037883  0.42516182     0.12900
H1543       H  0.91609558  0.64161444  0.40420703     0.12300
H1544       H  0.91139312  0.60311241  0.42347719     0.12600
H1545       H  0.89730194  0.67897536  0.38769051     0.15300
H1546       H  0.86090275  0.69708615  0.42399921     0.14100
H1547       H  0.85586066  0.58706528  0.46089573     0.11800
H1548       H  0.90427866  0.56963015  0.44335270     0.13800
C1549       C  0.92818094  0.85865578  0.39165267     0.19900
C1550       C  0.92085257  0.88178299  0.38613556    -0.18200
C1551       C  0.93498755  0.90141717  0.39217851    -0.10500
C1552       C  0.95654900  0.89823477  0.40432648     0.22100
C1553       C  0.96343471  0.87511430  0.41042813    -0.19800
C1554       C  0.94955059  0.85553923  0.40403601    -0.10700
C1555       C  0.97291626  0.91806972  0.41057608    -0.14800
C1556       C  0.97404565  0.93921471  0.39932829    -0.28700
C1557       C  0.91254687  0.83824022  0.38564596    -0.03000
C1558       C  0.92071345  0.81644710  0.38025781    -0.39500
H1559       H  0.90421683  0.88463808  0.37694609     0.13300
H1560       H  0.92884571  0.91893552  0.38755798     0.12900
H1561       H  0.97987791  0.87212309  0.41992126     0.12300
H1562       H  0.95535138  0.83803371  0.40920366     0.12600
H1563       H  0.98661975  0.91402176  0.42352704     0.15300
H1564       H  0.96058303  0.94408314  0.38650505     0.14100
H1565       H  0.89354410  0.84148437  0.38497003     0.11800
H1566       H  0.93965990  0.81326409  0.37883775     0.13800
C1567       C  0.73382358  0.83816686  0.31091566     0.19900
C1568       C  0.73525339  0.82901698  0.33401782    -0.18200
C1569       C  0.75703597  0.82184777  0.34340623    -0.10500
C1570       C  0.77781770  0.82330089  0.32957464     0.22100
C1571       C  0.77641438  0.83323621  0.30675200    -0.19800
C1572       C  0.75467758  0.84055892  0.29746420    -0.10700
C1573       C  0.80097551  0.81334682  0.33721055    -0.14800
C1574       C  0.80422621  0.79941641  0.35634139    -0.28700
C1575       C  0.71014134  0.84272472  0.30056321    -0.03000
C1576       C  0.70608892  0.85846615  0.28311543    -0.39500
H1577       H  0.71935903  0.82699849  0.34468317     0.13300
H1578       H  0.75722170  0.81476406  0.36120651     0.12900
H1579       H  0.79208909  0.83453559  0.29566061     0.12300
H1580       H  0.75412891  0.84702214  0.27939151     0.12600
H1581       H  0.81588502  0.81612230  0.32524400     0.15300
H1582       H  0.79004016  0.79592935  0.36885585     0.14100
H1583       H  0.69534147  0.83249816  0.30763528     0.11800
H1584       H  0.72011312  0.87015008  0.27687407     0.13800
C1585       C  0.65476910  0.42315503  0.14333539     0.19900
C1586       C  0.64535426  0.42797557  0.16590818    -0.18200
C1587       C  0.62211605  0.43600688  0.16862969    -0.10500
C1588       C  0.60736815  0.43942706  0.14889423     0.22100
C1589       C  0.61643986  0.43427286  0.12614129    -0.19800
C1590       C  0.63992609  0.42619213  0.12336845    -0.10700
C1591       C  0.58458039  0.45218082  0.15282043    -0.14800
C1592       C  0.56651726  0.45403691  0.13717666    -0.28700
C1593       C  0.67983981  0.41449530  0.14220920    -0.03000
C1594       C  0.69156662  0.40756402  0.12250990    -0.39500
H1595       H  0.65615401  0.42576974  0.18166253     0.13300
H1596       H  0.61581922  0.44019461  0.18632088     0.12900
H1597       H  0.60583310  0.43737785  0.11044452     0.12300
H1598       H  0.64633272  0.42274563  0.10561466     0.12600
H1599       H  0.58381964  0.46321445  0.16866565     0.15300
H1600       H  0.56556954  0.44267574  0.12164411     0.14100
H1601       H  0.68880231  0.41231121  0.15916112     0.11800
H1602       H  0.68329899  0.40869044  0.10517808     0.13800
C1603       C  0.85479341  0.37452240  0.07183379     0.19900
C1604       C  0.87481221  0.38721923  0.07994006    -0.18200
C1605       C  0.89629470  0.38698197  0.06726121    -0.10500
C1606       C  0.89828761  0.37391276  0.04606887     0.22100
C1607       C  0.87844148  0.36085523  0.03826743    -0.19800
C1608       C  0.85700719  0.36118684  0.05081939    -0.10700
C1609       C  0.91944560  0.37496706  0.03007973    -0.14800
C1610       C  0.93906956  0.38860093  0.03311497    -0.28700
C1611       C  0.83212479  0.37594269  0.08572378    -0.03000
C1612       C  0.81244828  0.36276846  0.08147500    -0.39500
H1613       H  0.87376100  0.39763876  0.09607023     0.13300
H1614       H  0.91097595  0.39742238  0.07393354     0.12900
H1615       H  0.87927255  0.35078617  0.02189528     0.12300
H1616       H  0.84226758  0.35128160  0.04354664     0.12600
H1617       H  0.91770526  0.36556716  0.01329167     0.15300
H1618       H  0.94251341  0.39746989  0.04984069     0.14100
H1619       H  0.83191965  0.38797482  0.10080971     0.11800
H1620       H  0.81205391  0.34988265  0.06723320     0.13800
C1621       C  0.68145179  0.26750504  0.14778558     0.19900
C1622       C  0.66538785  0.27242045  0.16632389    -0.18200
C1623       C  0.65323961  0.25404882  0.17785026    -0.10500
C1624       C  0.65688536  0.23037924  0.17097389     0.22100
C1625       C  0.67150199  0.22578776  0.15124903    -0.19800
C1626       C  0.68359653  0.24415196  0.13973060    -0.10700
C1627       C  0.64742713  0.20975877  0.18452071    -0.14800
C1628       C  0.63869518  0.21063843  0.20684661    -0.28700
C1629       C  0.69715940  0.28616438  0.13765390    -0.03000
C1630       C  0.70622090  0.30328315  0.15155680    -0.39500
H1631       H  0.66257788  0.29043463  0.17228045     0.13300
H1632       H  0.64150529  0.25850921  0.19235190     0.12900
H1633       H  0.67443333  0.20776477  0.14534133     0.12300
H1634       H  0.69557887  0.23994972  0.12529153     0.12600
H1635       H  0.65019619  0.19244570  0.17653336     0.15300
H1636       H  0.63572135  0.22737166  0.21578659     0.14100
H1637       H  0.70279072  0.28477806  0.11924977     0.11800
H1638       H  0.70158207  0.30369962  0.17027463     0.13800
C1639       C  0.82293853  0.32936440  0.22018561     0.19900
C1640       C  0.83832546  0.30983530  0.22030099    -0.18200
C1641       C  0.84844063  0.30177104  0.24147237    -0.10500
C1642       C  0.84326763  0.31308099  0.26310027     0.22100
C1643       C  0.82846143  0.33304485  0.26289383    -0.19800
C1644       C  0.81841844  0.34116282  0.24172061    -0.10700
C1645       C  0.85034353  0.30304112  0.28641816    -0.14800
C1646       C  0.86762251  0.28690203  0.28977751    -0.28700
C1647       C  0.81018185  0.33512351  0.19780369    -0.03000
C1648       C  0.79823833  0.35537128  0.19375027    -0.39500
H1649       H  0.84192714  0.30025998  0.20401837     0.13300
H1650       H  0.85927225  0.28601861  0.24089179     0.12900
H1651       H  0.82394926  0.34192126  0.27934756     0.12300
H1652       H  0.80628463  0.35591480  0.24261427     0.12600
H1653       H  0.83994818  0.30867007  0.30167480     0.15300
H1654       H  0.87935630  0.28174528  0.27542333     0.14100
H1655       H  0.81007861  0.32151565  0.18412204     0.11800
H1656       H  0.79874758  0.36986114  0.20639307     0.13800
C1657       C  0.83422659  0.69474129  0.27339752     0.19900
C1658       C  0.83355491  0.70650095  0.25140928    -0.18200
C1659       C  0.82084262  0.69677777  0.23238248    -0.10500
C1660       C  0.80841492  0.67521426  0.23501058     0.22100
C1661       C  0.81007911  0.66299125  0.25655674    -0.19800
C1662       C  0.82269098  0.67273050  0.27558599    -0.10700
C1663       C  0.79351730  0.66511119  0.21570851    -0.14800
C1664       C  0.78257397  0.67883847  0.19968941    -0.28700
C1665       C  0.84430640  0.70572870  0.29516241    -0.03000
C1666       C  0.85866362  0.72489811  0.29572593    -0.39500
H1667       H  0.84200028  0.72356221  0.24898728     0.13300
H1668       H  0.82066112  0.70629604  0.21572111     0.12900
H1669       H  0.80092618  0.64624075  0.25893772     0.12300
H1670       H  0.82289409  0.66329662  0.29232638     0.12600
H1671       H  0.79077463  0.64604752  0.21519977     0.15300
H1672       H  0.78429777  0.69797046  0.20069536     0.14100
H1673       H  0.83860174  0.69806465  0.31193837     0.11800
H1674       H  0.86591943  0.73248343  0.27958921     0.13800
C1675       C  0.64553893  0.77439845  0.17597545     0.19900
C1676       C  0.65964287  0.77674881  0.15552933    -0.18200
C1677       C  0.66831388  0.75680802  0.14377820    -0.10500
C1678       C  0.66300706  0.73402159  0.15233745     0.22100
C1679       C  0.64725151  0.73166178  0.17153339    -0.19800
C1680       C  0.63859578  0.75160395  0.18330305    -0.10700
C1681       C  0.67528752  0.71244782  0.14384594    -0.14800
C1682       C  0.69565092  0.71262250  0.13129051    -0.28700
C1683       C  0.64047392  0.79608098  0.18994153    -0.03000
C1684       C  0.63116737  0.79642734  0.21198465    -0.39500
H1685       H  0.66492353  0.79411813  0.14922730     0.13300
H1686       H  0.67972259  0.75949179  0.12858301     0.12900
H1687       H  0.64259474  0.71428885  0.17829440     0.12300
H1688       H  0.62724084  0.74887243  0.19851925     0.12600
H1689       H  0.66917676  0.69572078  0.15127228     0.15300
H1690       H  0.70264596  0.72869944  0.12342570     0.14100
H1691       H  0.64673952  0.81270107  0.18239945     0.11800
H1692       H  0.62417642  0.78062545  0.22038215     0.13800
C1693       C  0.64661853  0.58657499  0.13884515     0.19900
C1694       C  0.62682560  0.58874335  0.15393988    -0.18200
C1695       C  0.60610146  0.57544657  0.14993905    -0.10500
C1696       C  0.60469821  0.55977543  0.13052520     0.22100
C1697       C  0.62411492  0.55834321  0.11497895    -0.19800
C1698       C  0.64473404  0.57154132  0.11896352    -0.10700
C1699       C  0.58474839  0.54280854  0.12676672    -0.14800
C1700       C  0.56511258  0.54080176  0.14037847    -0.28700
C1701       C  0.66851259  0.60067084  0.14414215    -0.03000
C1702       C  0.68928991  0.59831590  0.13244097    -0.39500
H1703       H  0.62755539  0.60044675  0.16918435     0.13300
H1704       H  0.59165043  0.57711982  0.16244250     0.12900
H1705       H  0.62357285  0.54648890  0.09983471     0.12300
H1706       H  0.65896997  0.56966540  0.10629237     0.12600
H1707       H  0.58733171  0.52963589  0.11289439     0.15300
H1708       H  0.56082146  0.55403631  0.15362628     0.14100
H1709       H  0.66723161  0.61421691  0.15782068     0.11800
H1710       H  0.69140655  0.58538768  0.11842159     0.13800
C1711       C  0.84731907  0.63333390  0.08939747     0.19900
C1712       C  0.86423782  0.61628246  0.09571152    -0.18200
C1713       C  0.88634595  0.61555109  0.08441140    -0.10500
C1714       C  0.89207627  0.63217819  0.06670962     0.22100
C1715       C  0.87538540  0.64969690  0.06097780    -0.19800
C1716       C  0.85327261  0.65032185  0.07215649    -0.10700
C1717       C  0.91402524  0.63092860  0.05214576    -0.14800
C1718       C  0.93091814  0.61409581  0.05366803    -0.28700
C1719       C  0.82420048  0.63356754  0.10203161    -0.03000
C1720       C  0.80431701  0.64338825  0.09322547    -0.39500
H1721       H  0.86017937  0.60321614  0.10920475     0.13300
H1722       H  0.89853700  0.60171448  0.08940063     0.12900
H1723       H  0.87929855  0.66277550  0.04744358     0.12300
H1724       H  0.84108115  0.66428126  0.06740385     0.12600
H1725       H  0.91527558  0.64346429  0.03752392     0.15300
H1726       H  0.93147886  0.60171423  0.06832519     0.14100
H1727       H  0.82360008  0.62529705  0.11944464     0.11800
H1728       H  0.80412248  0.65108051  0.07558402     0.13800
C1729       C  0.90042376  0.62976070  0.95033001     0.19900
C1730       C  0.88545504  0.64954516  0.95174108    -0.18200
C1731       C  0.86308837  0.64937541  0.94106505    -0.10500
C1732       C  0.85497776  0.62922949  0.92871885     0.22100
C1733       C  0.87026050  0.60971437  0.92656968    -0.19800
C1734       C  0.89270279  0.60986318  0.93734088    -0.10700
C1735       C  0.83123116  0.62823513  0.91705701    -0.14800
C1736       C  0.81330308  0.64323932  0.92192719    -0.28700
C1737       C  0.92211389  0.62983413  0.96538554    -0.03000
C1738       C  0.93791846  0.61202284  0.96734729    -0.39500
H1739       H  0.89086077  0.66510802  0.96168227     0.13300
H1740       H  0.85241968  0.66516722  0.94251959     0.12900
H1741       H  0.86461772  0.59407101  0.91690106     0.12300
H1742       H  0.90347677  0.59412836  0.93601716     0.12600
H1743       H  0.82853395  0.61470963  0.90355673     0.15300
H1744       H  0.81509040  0.65661685  0.93563197     0.14100
H1745       H  0.92336262  0.64413793  0.97832141     0.11800
H1746       H  0.93861179  0.59767259  0.95456547     0.13800
C1747       C  0.60886882  0.56673337  0.90935486     0.19900
C1748       C  0.63070841  0.55655955  0.91558552    -0.18200
C1749       C  0.65165528  0.56983827  0.91475238    -0.10500
C1750       C  0.65110446  0.59374548  0.90801215     0.22100
C1751       C  0.62910701  0.60435500  0.90318808    -0.19800
C1752       C  0.60813337  0.59093048  0.90359989    -0.10700
C1753       C  0.67316150  0.60794232  0.90550126    -0.14800
C1754       C  0.69363177  0.59879649  0.89723623    -0.28700
C1755       C  0.58782735  0.55093896  0.90804345    -0.03000
C1756       C  0.56914285  0.55422655  0.89345307    -0.39500
H1757       H  0.63170262  0.53799426  0.92033171     0.13300
H1758       H  0.66825209  0.56135576  0.91925219     0.12900
H1759       H  0.62825955  0.62288998  0.89831413     0.12300
H1760       H  0.59153222  0.59946166  0.89927368     0.12600
H1761       H  0.67186383  0.62696248  0.90822369     0.15300
H1762       H  0.69465929  0.58019406  0.89242855     0.14100
H1763       H  0.58924319  0.53401516  0.91714985     0.11800
H1764       H  0.56684005  0.57070041  0.88385351     0.13800
C1765       C  0.65974301  0.77461790  0.82237446     0.19900
C1766       C  0.68081177  0.77614211  0.83562579    -0.18200
C1767       C  0.69138520  0.75585280  0.84485630    -0.10500
C1768       C  0.68097061  0.73349101  0.84116661     0.22100
C1769       C  0.65954530  0.73195629  0.82855027    -0.19800
C1770       C  0.64889618  0.75229268  0.81934605    -0.10700
C1771       C  0.69308566  0.71137031  0.84825529    -0.14800
C1772       C  0.70902361  0.71019707  0.86600003    -0.28700
C1773       C  0.65123482  0.79646787  0.81050560    -0.03000
C1774       C  0.63209383  0.79786052  0.79626555    -0.39500
H1775       H  0.68966196  0.79304796  0.83812557     0.13300
H1776       H  0.70823276  0.75771237  0.85389543     0.12900
H1777       H  0.65127565  0.71487754  0.82537026     0.12300
H1778       H  0.63269806  0.75013563  0.80931491     0.12600
H1779       H  0.68893852  0.69545527  0.83814648     0.15300
H1780       H  0.71251157  0.72543978  0.87724639     0.14100
H1781       H  0.66228538  0.81218689  0.81260014     0.11800
H1782       H  0.61996019  0.78309838  0.79399201     0.13800
C1783       C  0.81344971  0.69749462  0.73081170     0.19900
C1784       C  0.79571301  0.68022150  0.73381498    -0.18200
C1785       C  0.78999843  0.67166140  0.75636869    -0.10500
C1786       C  0.80191306  0.68029699  0.77657203     0.22100
C1787       C  0.81974625  0.69753870  0.77357240    -0.19800
C1788       C  0.82554657  0.70603370  0.75094639    -0.10700
C1789       C  0.79485164  0.67342410  0.80107467    -0.14800
C1790       C  0.78166001  0.65416061  0.80644819    -0.28700
C1791       C  0.81719600  0.70743535  0.70669506    -0.03000
C1792       C  0.83686298  0.71912610  0.69963551    -0.39500
H1793       H  0.78587293  0.67362132  0.71863797     0.13300
H1794       H  0.77563540  0.65898961  0.75782455     0.12900
H1795       H  0.82892040  0.70480819  0.78885895     0.12300
H1796       H  0.83883360  0.71984700  0.74946691     0.12600
H1797       H  0.80021558  0.68529500  0.81533476     0.15300
H1798       H  0.77667697  0.64143381  0.79289204     0.14100
H1799       H  0.80281597  0.70496259  0.69403916     0.11800
H1800       H  0.85203846  0.72101525  0.71135353     0.13800
C1801       C  0.65689360  0.25461267  0.82883874     0.19900
C1802       C  0.67260323  0.25493933  0.84821799    -0.18200
C1803       C  0.68450626  0.27575632  0.85472096    -0.10500
C1804       C  0.68101517  0.29673014  0.84177897     0.22100
C1805       C  0.66428223  0.29671613  0.82328754    -0.19800
C1806       C  0.65242700  0.27592405  0.81676447    -0.10700
C1807       C  0.69508032  0.31869455  0.84583131    -0.14800
C1808       C  0.71531304  0.32010887  0.85859506    -0.28700
C1809       C  0.64811017  0.23131762  0.82007040    -0.03000
C1810       C  0.63106957  0.22840615  0.80350806    -0.39500
H1811       H  0.67631994  0.23879670  0.85788502     0.13300
H1812       H  0.69671205  0.27507683  0.86949897     0.12900
H1813       H  0.66111754  0.31265876  0.81309527     0.12300
H1814       H  0.64079757  0.27654362  0.80152464     0.12600
H1815       H  0.68924793  0.33436140  0.83629342     0.15300
H1816       H  0.72201713  0.30510842  0.86847048     0.14100
H1817       H  0.65745492  0.21575219  0.82643167     0.11800
H1818       H  0.62058441  0.24322964  0.79734532     0.13800
C1819       C  0.83666333  0.33118464  0.72150997     0.19900
C1820       C  0.82344655  0.35219947  0.72074047    -0.18200
C1821       C  0.81536163  0.36284367  0.74165565    -0.10500
C1822       C  0.82023855  0.35246929  0.76382842     0.22100
C1823       C  0.83457335  0.33221180  0.76458988    -0.19800
C1824       C  0.84262204  0.32159684  0.74373836    -0.10700
C1825       C  0.80955769  0.36074573  0.78647472    -0.14800
C1826       C  0.79247076  0.37726421  0.78840102    -0.28700
C1827       C  0.84133239  0.31835602  0.69898512    -0.03000
C1828       C  0.85678878  0.30035963  0.69683060    -0.39500
H1829       H  0.81865329  0.35997686  0.70383623     0.13300
H1830       H  0.80481410  0.37869227  0.74014437     0.12900
H1831       H  0.83868465  0.32385693  0.78139596     0.12300
H1832       H  0.85234654  0.30521900  0.74527072     0.12600
H1833       H  0.81493120  0.35137737  0.80244214     0.15300
H1834       H  0.78644953  0.38730600  0.77320497     0.14100
H1835       H  0.83055054  0.32318068  0.68373672     0.11800
H1836       H  0.86878809  0.29581557  0.71114277     0.13800
C1837       C  0.60508292  0.45058419  0.88018104     0.19900
C1838       C  0.62156191  0.44490108  0.89792443    -0.18200
C1839       C  0.64372803  0.43564215  0.89207461    -0.10500
C1840       C  0.65009561  0.43216458  0.86816215     0.22100
C1841       C  0.63310952  0.43656364  0.85046629    -0.19800
C1842       C  0.61084117  0.44581017  0.85634463    -0.10700
C1843       C  0.67406027  0.42381209  0.86099322    -0.14800
C1844       C  0.69323028  0.42465604  0.87525534    -0.28700
C1845       C  0.58417967  0.46488694  0.88710737    -0.03000
C1846       C  0.56562313  0.46997577  0.87294141    -0.39500
H1847       H  0.61756585  0.44838209  0.91642433     0.13300
H1848       H  0.65574475  0.43151517  0.90641643     0.12900
H1849       H  0.63740214  0.43367137  0.83193671     0.12300
H1850       H  0.59880800  0.45029063  0.84210358     0.12600
H1851       H  0.67597723  0.41649373  0.84322829     0.15300
H1852       H  0.69212395  0.43174818  0.89310062     0.14100
H1853       H  0.58546650  0.47415755  0.90402481     0.11800
H1854       H  0.56249686  0.46039205  0.85652515     0.13800
C1855       C  0.90017354  0.41824106  0.93312592     0.19900
C1856       C  0.87936648  0.43114766  0.93759456    -0.18200
C1857       C  0.85806933  0.42522198  0.92631125    -0.10500
C1858       C  0.85716546  0.40621148  0.91021966     0.22100
C1859       C  0.87809551  0.39390387  0.90498222    -0.19800
C1860       C  0.89944376  0.39989027  0.91617290    -0.10700
C1861       C  0.83450996  0.39781903  0.89974811    -0.14800
C1862       C  0.81612827  0.41218734  0.89521983    -0.28700
C1863       C  0.92069596  0.42203765  0.94928495    -0.03000
C1864       C  0.94115677  0.40977908  0.94845063    -0.39500
H1865       H  0.87929324  0.44515761  0.95076251     0.13300
H1866       H  0.84217158  0.43480575  0.93110192     0.12900
H1867       H  0.87779833  0.37920137  0.89259811     0.12300
H1868       H  0.91485207  0.38927118  0.91223981     0.12600
H1869       H  0.83340701  0.37935097  0.89432501     0.15300
H1870       H  0.81760359  0.43110742  0.89839354     0.14100
H1871       H  0.91750689  0.43305380  0.96481741     0.11800
H1872       H  0.94608095  0.39962640  0.93289487     0.13800
loop_ 
_geom_bond_atom_site_label_1 
_geom_bond_atom_site_label_2 
_geom_bond_distance 
_geom_bond_site_symmetry_2 
_ccdc_geom_bond_type 
O1            C4   1.268       .  A
O1           Cd6   2.486       .  S
C2           O11   1.266       .  A
C2            O7   1.269       .  A
C2         C1844   1.469       .  S
O3            C9   1.269       .  A
O3           Cd6   2.502       .  S
C4           O12   1.264       .  A
C4         C1826   1.474       .  S
C5           O10   1.270       .  A
C5            O8   1.266       .  A
C5         C1862   1.471       .  S
Cd6          O13   2.405       .  S
Cd6          O12   2.416       .  S
Cd6          O11   2.439       .  S
Cd6           O7   2.451       .  S
Cd6          O10   2.452       .  S
Cd6           O8   2.446       .  S
C9           O13   1.263       .  A
C9         C1808   1.476       .  S
O14          C17   1.266       .  A
O14         Cd19   2.469       .  S
C15          O24   1.268       .  A
C15          O20   1.265       .  A
C15        C1772   1.471       .  S
O16          C22   1.268       .  A
O16         Cd19   2.485       .  S
C17          O25   1.266       .  A
C17        C1736   1.476       .  S
C18          O23   1.264       .  A
C18          O21   1.267       .  A
C18        C1754   1.475       .  S
Cd19         O26   2.434       .  S
Cd19         O25   2.465       .  S
Cd19         O24   2.468       .  S
Cd19         O20   2.427       .  S
Cd19         O23   2.447       .  S
Cd19         O21   2.489       .  S
C22          O26   1.264       .  A
C22        C1790   1.476       .  S
O27          C30   1.268       .  A
O27         Cd32   2.485       .  S
C28          O37   1.267       .  A
C28          O33   1.268       .  A
C28        C1720   1.474       .  S
O29          C35   1.270       .  A
O29         Cd32   2.494       .  S
C30          O38   1.263       .  A
C30        C1682   1.470       .  S
C31          O36   1.266       .  A
C31          O34   1.265       .  A
C31        C1702   1.474       .  S
Cd32         O39   2.424       .  S
Cd32         O38   2.397       .  S
Cd32         O37   2.432       .  S
Cd32         O33   2.469       .  S
Cd32         O36   2.477       .  S
Cd32         O34   2.458       .  S
C35          O39   1.261       .  A
C35        C1664   1.471       .  S
O40          C43   1.267       .  A
O40         Cd45   2.478       .  S
C41          O50   1.266       .  A
C41          O46   1.271       .  A
C41        C1648   1.478       .  S
O42          C48   1.271       .  A
O42         Cd45   2.523       .  S
C43          O51   1.265       .  A
C43        C1594   1.486       .  S
C44          O49   1.269       .  A
C44          O47   1.267       .  A
C44        C1612   1.483       .  S
Cd45         O52   2.409       .  S
Cd45         O51   2.496       .  S
Cd45         O50   2.427       .  S
Cd45         O46   2.485       .  S
Cd45         O49   2.485       .  S
Cd45         O47   2.477       .  S
C48          O52   1.260       .  A
C48        C1630   1.472       .  S
O53          C56   1.265       .  A
O53         Cd58   2.422       .  S
C54          O63   1.266       .  A
C54          O59   1.266       .  A
C54        C1538   1.479       .  S
O55          C61   1.263       .  A
O55         Cd58   2.412       .  S
C56          O64   1.268       .  A
C56        C1574   1.474       .  S
C57          O62   1.262       .  A
C57          O60   1.268       .  A
C57        C1558   1.478       .  S
Cd58         O65   2.507       .  S
Cd58         O64   2.481       .  S
Cd58         O63   2.476       .  S
Cd58         O59   2.475       .  S
Cd58         O62   2.447       .  S
Cd58         O60   2.507       .  S
C61          O65   1.269       .  A
C61        C1666   1.477       .  S
O66          C69   1.266       .  A
O66         Cd71   2.454       .  S
C67          O76   1.262       .  A
C67          O72   1.266       .  A
C67        C1520   1.471       .  S
O68          C74   1.265       .  A
O68         Cd71   2.429       .  S
C69          O77   1.267       .  A
C69        C1502   1.473       .  S
C70          O75   1.265       .  A
C70          O73   1.264       .  A
C70        C1484   1.477       .  S
Cd71         O78   2.489       .  S
Cd71         O77   2.464       .  S
Cd71         O76   2.406       .  S
Cd71         O72   2.490       .  S
Cd71         O75   2.468       .  S
Cd71         O73   2.477       .  S
C74          O78   1.268       .  A
C74        C1792   1.477       .  S
O79          C82   1.270       .  A
O79         Cd84   2.490       .  S
C80          O89   1.266       .  A
C80          O85   1.270       .  A
C80        C1468   1.475       .  S
O81          C87   1.270       .  A
O81         Cd84   2.483       .  S
C82          O90   1.264       .  A
C82        C1430   1.473       .  S
C83          O88   1.267       .  A
C83          O86   1.265       .  A
C83        C1448   1.476       .  S
Cd84         O91   2.424       .  S
Cd84         O90   2.401       .  S
Cd84         O89   2.426       .  S
Cd84         O85   2.471       .  S
Cd84         O88   2.472       .  S
Cd84         O86   2.458       .  S
C87          O91   1.263       .  A
C87        C1412   1.470       .  S
O92          C95   1.268       .  A
O92         Cd97   2.486       .  S
C93         O102   1.260       .  A
C93          O98   1.271       .  A
C93        C1396   1.471       .  S
O94         C100   1.270       .  A
O94         Cd97   2.493       .  S
C95         O103   1.264       .  A
C95        C1358   1.476       .  S
C96         O101   1.269       .  A
C96          O99   1.267       .  A
C96        C1340   1.477       .  S
Cd97        O104   2.391       .  S
Cd97        O103   2.454       .  S
Cd97        O102   2.412       .  S
Cd97         O98   2.517       .  S
Cd97        O101   2.466       .  S
Cd97         O99   2.446       .  S
C100        O104   1.264       .  A
C100       C1376   1.474       .  S
O105        C108   1.263       .  A
O105       Cd110   2.433       .  S
C106        O115   1.267       .  A
C106        O111   1.268       .  A
C106       C1304   1.477       .  S
O107        C113   1.268       .  A
O107       Cd110   2.497       .  S
C108        O116   1.267       .  A
C108       C1810   1.476       .  S
C109        O114   1.265       .  A
C109        O112   1.265       .  A
C109       C1288   1.475       .  S
Cd110       O117   2.406       .  S
Cd110       O116   2.491       .  S
Cd110       O115   2.462       .  S
Cd110       O111   2.464       .  S
Cd110       O114   2.462       .  S
Cd110       O112   2.477       .  S
C113        O117   1.263       .  A
C113       C1324   1.473       .  S
O118        C121   1.268       .  A
O118       Cd123   2.447       .  S
C119        O128   1.265       .  A
C119        O124   1.262       .  A
C119       C1774   1.473       .  S
O120        C126   1.268       .  A
O120       Cd123   2.504       .  S
C121        O129   1.268       .  A
C121       C1250   1.471       .  S
C122        O127   1.263       .  A
C122        O125   1.263       .  A
C122       C1268   1.476       .  S
Cd123       O130   2.405       .  S
Cd123       O129   2.442       .  S
Cd123       O128   2.490       .  S
Cd123       O124   2.424       .  S
Cd123       O127   2.463       .  S
Cd123       O125   2.481       .  S
C126        O130   1.263       .  A
C126       C1522   1.474       .  S
O131        C134   1.270       .  A
O131       Cd136   2.488       .  S
C132        O141   1.266       .  A
C132        O137   1.270       .  A
C132       C1214   1.475       .  S
O133        C139   1.271       .  A
O133       Cd136   2.491       .  S
C134        O142   1.263       .  A
C134       C1232   1.473       .  S
C135        O140   1.269       .  A
C135        O138   1.266       .  A
C135       C1198   1.474       .  S
Cd136       O143   2.398       .  S
Cd136       O142   2.407       .  S
Cd136       O141   2.443       .  S
Cd136       O137   2.471       .  S
Cd136       O140   2.464       .  S
Cd136       O138   2.444       .  S
C139        O143   1.262       .  A
C139       C1414   1.466       .  S
O144        C147   1.268       .  A
O144       Cd149   2.474       .  S
C145        O154   1.263       .  A
C145        O150   1.268       .  A
C145       C1126   1.475       .  S
O146        C152   1.268       .  A
O146       Cd149   2.501       .  S
C147        O155   1.265       .  A
C147       C1178   1.474       .  S
C148        O153   1.269       .  A
C148        O151   1.266       .  A
C148       C1160   1.476       .  S
Cd149       O156   2.430       .  S
Cd149       O155   2.451       .  S
Cd149       O154   2.439       .  S
Cd149       O150   2.487       .  S
Cd149       O153   2.476       .  S
Cd149       O151   2.449       .  S
C152        O156   1.263       .  A
C152       C1144   1.478       .  S
O157        C160   1.268       .  A
O157       Cd162   2.491       .  S
C158        O167   1.266       .  A
C158        O163   1.268       .  A
C158       C1088   1.472       .  S
O159        C165   1.263       .  A
O159       Cd162   2.421       .  S
C160        O168   1.263       .  A
C160       C1684   1.471       .  S
C161        O166   1.268       .  A
C161        O164   1.266       .  A
C161       C1106   1.474       .  S
Cd162       O169   2.493       .  S
Cd162       O168   2.401       .  S
Cd162       O167   2.450       .  S
Cd162       O163   2.451       .  S
Cd162       O166   2.462       .  S
Cd162       O164   2.454       .  S
C165        O169   1.267       .  A
C165       C1576   1.473       .  S
O170        C173   1.268       .  A
O170       Cd175   2.497       .  S
C171        O180   1.267       .  A
C171        O176   1.261       .  A
C171       C1628   1.480       .  S
O172        C178   1.267       .  A
O172       Cd175   2.483       .  S
C173        O181   1.263       .  A
C173       C1034   1.477       .  S
C174        O179   1.267       .  A
C174        O177   1.266       .  A
C174       C1052   1.474       .  S
Cd175       O182   2.412       .  S
Cd175       O181   2.449       .  S
Cd175       O180   2.521       .  S
Cd175       O176   2.429       .  S
Cd175       O179   2.443       .  S
Cd175       O177   2.466       .  S
C178        O182   1.265       .  A
C178       C1072   1.473       .  S
O183        C186   1.267       .  A
O183       Cd188   2.479       .  S
C184        O193   1.264       .  A
C184        O189   1.266       .  A
C184       C1016   1.468       .  S
O185        C191   1.264       .  A
O185       Cd188   2.460       .  S
C186        O194   1.265       .  A
C186        C998   1.475       .  S
C187        O192   1.265       .  A
C187        O190   1.264       .  A
C187        C982   1.470       .  S
Cd188       O195   2.459       .  S
Cd188       O194   2.444       .  S
Cd188       O193   2.431       .  S
Cd188       O189   2.463       .  S
Cd188       O192   2.461       .  S
Cd188       O190   2.457       .  S
C191        O195   1.263       .  A
C191       C1378   1.467       .  S
O196        C199   1.268       .  A
O196       Cd201   2.497       .  S
C197        O206   1.265       .  A
C197        O202   1.265       .  A
C197        C962   1.477       .  S
O198        C204   1.263       .  A
O198       Cd201   2.446       .  S
C199        O207   1.265       .  A
C199        C910   1.477       .  S
C200        O205   1.268       .  A
C200        O203   1.267       .  A
C200        C946   1.480       .  S
Cd201       O208   2.505       .  S
Cd201       O207   2.421       .  S
Cd201       O206   2.480       .  S
Cd201       O202   2.466       .  S
Cd201       O205   2.476       .  S
Cd201       O203   2.476       .  S
C204        O208   1.267       .  A
C204        C928   1.480       .  S
O209        C212   1.268       .  A
O209       Cd214   2.496       .  S
C210        O219   1.266       .  A
C210        O215   1.265       .  A
C210        C890   1.475       .  S
O211        C217   1.268       .  A
O211       Cd214   2.503       .  S
C212        O220   1.264       .  A
C212       C1234   1.474       .  S
C213        O218   1.268       .  A
C213        O216   1.267       .  A
C213        C872   1.475       .  S
Cd214       O221   2.416       .  S
Cd214       O220   2.407       .  S
Cd214       O219   2.475       .  S
Cd214       O215   2.453       .  S
Cd214       O218   2.464       .  S
Cd214       O216   2.459       .  S
C217        O221   1.263       .  A
C217       C1432   1.476       .  S
O222        C225   1.266       .  A
O222       Cd227   2.479       .  S
C223        O232   1.267       .  A
C223        O228   1.267       .  A
C223        C856   1.476       .  S
O224        C230   1.269       .  A
O224       Cd227   2.515       .  S
C225        O233   1.264       .  A
C225        C836   1.477       .  S
C226        O231   1.264       .  A
C226        O229   1.266       .  A
C226        C818   1.478       .  S
Cd227       O234   2.392       .  S
Cd227       O233   2.462       .  S
Cd227       O232   2.467       .  S
Cd227       O228   2.454       .  S
Cd227       O231   2.467       .  S
Cd227       O229   2.487       .  S
C230        O234   1.263       .  A
C230       C1124   1.478       .  S
O235        C238   1.269       .  A
O235       Cd240   2.460       .  S
C236        O245   1.260       .  A
C236        O241   1.268       .  A
C236       C1394   1.471       .  S
O237        C243   1.267       .  A
O237       Cd240   2.508       .  S
C238        O246   1.268       .  A
C238        C784   1.480       .  S
C239        O244   1.267       .  A
C239        O242   1.266       .  A
C239        C802   1.473       .  S
Cd240       O247   2.408       .  S
Cd240       O246   2.470       .  S
Cd240       O245   2.420       .  S
Cd240       O241   2.515       .  S
Cd240       O244   2.459       .  S
Cd240       O242   2.459       .  S
C243        O247   1.263       .  A
C243       C1018   1.474       .  S
O248        C251   1.270       .  A
O248       Cd253   2.488       .  S
C249        O258   1.264       .  A
C249        O254   1.267       .  A
C249        C748   1.474       .  S
O250        C256   1.265       .  A
O250       Cd253   2.433       .  S
C251        O259   1.263       .  A
C251        C730   1.472       .  S
C252        O257   1.266       .  A
C252        O255   1.265       .  A
C252        C766   1.476       .  S
Cd253       O260   2.466       .  S
Cd253       O259   2.425       .  S
Cd253       O258   2.445       .  S
Cd253       O254   2.477       .  S
Cd253       O257   2.471       .  S
Cd253       O255   2.466       .  S
C256        O260   1.268       .  A
C256        C908   1.472       .  S
O261        C264   1.267       .  A
O261       Cd266   2.472       .  S
C262        O271   1.264       .  A
C262        O267   1.265       .  A
C262        C692   1.472       .  S
O263        C269   1.267       .  A
O263       Cd266   2.474       .  S
C264        O272   1.264       .  A
C264       C1828   1.471       .  S
C265        O270   1.266       .  A
C265        O268   1.263       .  A
C265        C712   1.469       .  S
Cd266       O273   2.425       .  S
Cd266       O272   2.428       .  S
Cd266       O271   2.457       .  S
Cd266       O267   2.463       .  S
Cd266       O270   2.470       .  S
Cd266       O268   2.427       .  S
C269        O273   1.265       .  A
C269       C1322   1.472       .  S
O274        C277   1.267       .  A
O274       Cd279   2.487       .  S
C275        O284   1.264       .  A
C275        O280   1.270       .  A
C275        C854   1.477       .  S
O276        C282   1.266       .  A
O276       Cd279   2.485       .  S
C277        O285   1.264       .  A
C277        C674   1.480       .  S
C278        O283   1.268       .  A
C278        O281   1.267       .  A
C278        C656   1.478       .  S
Cd279       O286   2.449       .  S
Cd279       O285   2.477       .  S
Cd279       O284   2.416       .  S
Cd279       O280   2.501       .  S
Cd279       O283   2.463       .  S
Cd279       O281   2.474       .  S
C282        O286   1.264       .  A
C282       C1142   1.476       .  S
O287        C290   1.269       .  A
O287       Cd292   2.453       .  S
C288        O297   1.262       .  A
C288        O293   1.267       .  A
C288       C1070   1.473       .  S
O289        C295   1.270       .  A
O289       Cd292   2.513       .  S
C290        O298   1.269       .  A
C290        C638   1.479       .  S
C291        O296   1.265       .  A
C291        O294   1.264       .  A
C291        C620   1.482       .  S
Cd292       O299   2.410       .  S
Cd292       O298   2.481       .  S
Cd292       O297   2.425       .  S
Cd292       O293   2.492       .  S
Cd292       O296   2.498       .  S
Cd292       O294   2.486       .  S
C295        O299   1.262       .  A
C295       C1646   1.478       .  S
O300        C303   1.270       .  A
O300       Cd305   2.505       .  S
C301        O310   1.265       .  A
C301        O306   1.267       .  A
C301        C586   1.479       .  S
O302        C308   1.269       .  A
O302       Cd305   2.491       .  S
C303        O311   1.262       .  A
C303        C728   1.472       .  S
C304        O309   1.267       .  A
C304        O307   1.264       .  A
C304        C602   1.480       .  S
Cd305       O312   2.431       .  S
Cd305       O311   2.419       .  S
Cd305       O310   2.472       .  S
Cd305       O306   2.482       .  S
Cd305       O309   2.486       .  S
Cd305       O307   2.469       .  S
C308        O312   1.266       .  A
C308        C926   1.478       .  S
C313       C1846   1.486       .  S
C313        C314   1.397       .  A
C313        C318   1.413       .  A
C314        C315   1.395       .  A
C314        H333   1.085       .  S
C315       C1756   1.489       .  S
C315        C316   1.412       .  A
C316        C317   1.425       .  A
C316        C323   1.404       .  A
C317        C318   1.422       .  A
C317        C322   1.420       .  A
C318        C319   1.406       .  A
C319        C320   1.397       .  A
C319        H329   1.083       .  S
C320        C321   1.406       .  A
C320        H330   1.082       .  S
C321        C322   1.425       .  A
C321        C328   1.419       .  A
C322        C325   1.420       .  A
C323        C324   1.392       .  A
C323        H331   1.082       .  S
C324        C325   1.404       .  A
C324        H332   1.083       .  S
C325        C326   1.407       .  A
C326        C874   1.476       .  S
C326        C327   1.392       .  A
C327        C328   1.400       .  A
C327        H334   1.085       .  S
C328        C838   1.494       .  S
C335       C1700   1.493       .  S
C335        C336   1.398       .  A
C335        C340   1.416       .  A
C336        C337   1.396       .  A
C336        H355   1.085       .  S
C337       C1592   1.494       .  S
C337        C338   1.418       .  A
C338        C339   1.426       .  A
C338        C345   1.405       .  A
C339        C340   1.424       .  A
C339        C344   1.424       .  A
C340        C341   1.407       .  A
C341        C342   1.395       .  A
C341        H351   1.082       .  S
C342        C343   1.404       .  A
C342        H352   1.083       .  S
C343        C344   1.426       .  A
C343        C350   1.415       .  A
C344        C347   1.424       .  A
C345        C346   1.398       .  A
C345        H353   1.083       .  S
C346        C347   1.407       .  A
C346        H354   1.082       .  S
C347        C348   1.417       .  A
C348        C746   1.491       .  S
C348        C349   1.398       .  A
C349        C350   1.394       .  A
C349        H356   1.085       .  S
C350        C782   1.489       .  S
C357       C1252   1.486       .  S
C357        C358   1.396       .  A
C357        C362   1.412       .  A
C358        C359   1.398       .  A
C358        H377   1.085       .  S
C359       C1216   1.488       .  S
C359        C360   1.415       .  A
C360        C361   1.423       .  A
C360        C367   1.405       .  A
C361        C362   1.423       .  A
C361        C366   1.420       .  A
C362        C363   1.405       .  A
C363        C364   1.391       .  A
C363        H373   1.082       .  S
C364        C365   1.404       .  A
C364        H374   1.082       .  S
C365        C366   1.422       .  A
C365        C372   1.410       .  A
C366        C369   1.424       .  A
C367        C368   1.396       .  A
C367        H375   1.082       .  S
C368        C369   1.406       .  A
C368        H376   1.082       .  S
C369        C370   1.416       .  A
C370       C1000   1.490       .  S
C370        C371   1.397       .  A
C371        C372   1.395       .  A
C371        H378   1.085       .  S
C372       C1090   1.485       .  S
C379       C1180   1.488       .  S
C379        C380   1.396       .  A
C379        C384   1.414       .  A
C380        C381   1.396       .  A
C380        H399   1.085       .  S
C381       C1306   1.489       .  S
C381        C382   1.414       .  A
C382        C383   1.424       .  A
C382        C389   1.405       .  A
C383        C384   1.424       .  A
C383        C388   1.421       .  A
C384        C385   1.405       .  A
C385        C386   1.395       .  A
C385        H395   1.082       .  S
C386        C387   1.405       .  A
C386        H396   1.082       .  S
C387        C388   1.425       .  A
C387        C394   1.415       .  A
C388        C391   1.424       .  A
C389        C390   1.395       .  A
C389        H397   1.082       .  S
C390        C391   1.405       .  A
C390        H398   1.083       .  S
C391        C392   1.413       .  A
C392       C1036   1.489       .  S
C392        C393   1.397       .  A
C393        C394   1.396       .  A
C393        H400   1.085       .  S
C394        C964   1.491       .  S
C401       C1504   1.489       .  S
C401        C402   1.397       .  A
C401        C406   1.412       .  A
C402        C403   1.399       .  A
C402        H421   1.085       .  S
C403       C1540   1.492       .  S
C403        C404   1.417       .  A
C404        C405   1.423       .  A
C404        C411   1.407       .  A
C405        C406   1.424       .  A
C405        C410   1.422       .  A
C406        C407   1.405       .  A
C407        C408   1.392       .  A
C407        H417   1.082       .  S
C408        C409   1.405       .  A
C408        H418   1.082       .  S
C409        C410   1.423       .  A
C409        C416   1.411       .  A
C410        C413   1.425       .  A
C411        C412   1.397       .  A
C411        H419   1.082       .  S
C412        C413   1.404       .  A
C412        H420   1.082       .  S
C413        C414   1.417       .  A
C414        C640   1.493       .  S
C414        C415   1.396       .  A
C415        C416   1.396       .  A
C415        H422   1.086       .  S
C416        C710   1.485       .  S
C423       C1342   1.495       .  S
C423        C424   1.398       .  A
C423        C428   1.417       .  A
C424        C425   1.399       .  A
C424        H443   1.084       .  S
C425       C1450   1.495       .  S
C425        C426   1.418       .  A
C426        C427   1.425       .  A
C426        C433   1.407       .  A
C427        C428   1.425       .  A
C427        C432   1.424       .  A
C428        C429   1.407       .  A
C429        C430   1.396       .  A
C429        H439   1.082       .  S
C430        C431   1.404       .  A
C430        H440   1.083       .  S
C431        C432   1.426       .  A
C431        C438   1.415       .  A
C432        C435   1.426       .  A
C433        C434   1.398       .  A
C433        H441   1.082       .  S
C434        C435   1.405       .  A
C434        H442   1.083       .  S
C435        C436   1.416       .  A
C436        C658   1.493       .  S
C436        C437   1.394       .  A
C437        C438   1.394       .  A
C437        H444   1.086       .  S
C438        C604   1.492       .  S
C445       C1360   1.493       .  S
C445        C446   1.398       .  A
C445        C450   1.416       .  A
C446        C447   1.399   1_455  A
C446        H465   1.084       .  S
C447       C1556   1.499       .  S
C447        C448   1.420       .  A
C448        C449   1.426   1_655  A
C448        C455   1.406       .  A
C449        C450   1.424       .  A
C449        C454   1.425   1_565  A
C450        C451   1.406       .  A
C451        C452   1.395   1_565  A
C451        H461   1.082       .  S
C452        C453   1.405       .  A
C452        H462   1.082       .  S
C453        C454   1.424       .  A
C453        C460   1.416       .  A
C454        C457   1.424   1_455  A
C455        C456   1.396   1_565  A
C455        H463   1.082       .  S
C456        C457   1.406       .  A
C456        H464   1.082       .  S
C457        C458   1.419       .  A
C458        C622   1.497       .  S
C458        C459   1.399   1_655  A
C459        C460   1.399       .  A
C459        H466   1.084       .  S
C460        C584   1.494       .  S
C467       C1486   1.492       .  S
C467        C468   1.398       .  A
C467        C472   1.417       .  A
C468        C469   1.398   1_655  A
C468        H487   1.085       .  S
C469       C1466   1.487       .  S
C469        C470   1.413       .  A
C470        C471   1.422   1_455  A
C470        C477   1.405       .  A
C471        C472   1.425       .  A
C471        C476   1.422   1_565  A
C472        C473   1.405       .  A
C473        C474   1.396   1_565  A
C473        H483   1.082       .  S
C474        C475   1.406       .  A
C474        H484   1.082       .  S
C475        C476   1.422       .  A
C475        C482   1.414       .  A
C476        C479   1.425   1_655  A
C477        C478   1.394   1_565  A
C477        H485   1.082       .  S
C478        C479   1.405       .  A
C478        H486   1.082       .  S
C479        C480   1.417       .  A
C480        C676   1.495       .  S
C480        C481   1.398   1_455  A
C481        C482   1.398       .  A
C481        H488   1.084       .  S
C482        C694   1.489       .  S
C489       C1196   1.492       .  S
C489        C490   1.396   1_565  A
C489        C494   1.414       .  A
C490        C491   1.399       .  A
C490        H509   1.085       .  S
C491       C1162   1.492       .  S
C491        C492   1.418       .  A
C492        C493   1.423       .  A
C492        C499   1.407       .  A
C493        C494   1.425   1_545  A
C493        C498   1.423   1_556  A
C494        C495   1.404       .  A
C495        C496   1.392   1_556  A
C495        H505   1.082       .  S
C496        C497   1.405       .  A
C496        H506   1.082       .  S
C497        C498   1.423   1_565  A
C497        C504   1.412       .  A
C498        C501   1.425       .  A
C499        C500   1.398   1_556  A
C499        H507   1.082       .  S
C500        C501   1.406       .  A
C500        H508   1.082       .  S
C501        C502   1.418       .  A
C502        C944   1.494       .  S
C502        C503   1.398       .  A
C503        C504   1.397   1_545  A
C503        H510   1.085   1_545  S
C504        C980   1.488       .  S
C511       C1286   1.491       .  S
C511        C512   1.399       .  A
C511        C516   1.415       .  A
C512        C513   1.400   1_545  A
C512        H531   1.084       .  S
C513       C1270   1.494       .  S
C513        C514   1.418       .  A
C514        C515   1.423   1_565  A
C514        C521   1.407       .  A
C515        C516   1.423       .  A
C515        C520   1.423   1_556  A
C516        C517   1.406       .  A
C517        C518   1.394   1_556  A
C517        H527   1.082       .  S
C518        C519   1.404       .  A
C518        H528   1.082       .  S
C519        C520   1.423       .  A
C519        C526   1.414       .  A
C520        C523   1.423   1_545  A
C521        C522   1.395   1_556  A
C521        H529   1.082       .  S
C522        C523   1.404       .  A
C522        H530   1.082       .  S
C523        C524   1.415       .  A
C524       C1108   1.488       .  S
C524        C525   1.396       .  A
C525        C526   1.396   1_565  A
C525        H532   1.085       .  S
C526       C1054   1.487       .  S
C533       C1610   1.499       .  S
C533        C534   1.399   1_554  A
C533        C538   1.420       .  A
C534        C535   1.398       .  A
C534        H553   1.084       .  S
C535       C1864   1.487       .  S
C535        C536   1.412       .  A
C536        C537   1.421       .  A
C536        C543   1.406       .  A
C537        C538   1.427   1_556  A
C537        C542   1.424   1_655  A
C538        C539   1.405       .  A
C539        C540   1.397   1_655  A
C539        H549   1.082       .  S
C540        C541   1.407       .  A
C540        H550   1.082       .  S
C541        C542   1.422   1_554  A
C541        C548   1.415       .  A
C542        C545   1.427       .  A
C543        C544   1.393   1_655  A
C543        H551   1.082       .  S
C544        C545   1.404       .  A
C544        H552   1.082       .  S
C545        C546   1.417       .  A
C546        C820   1.497       .  S
C546        C547   1.398       .  A
C547        C548   1.399   1_556  A
C547        H554   1.083       .  S
C548        C764   1.491       .  S
C555       C1738   1.489       .  S
C555        C556   1.395   1_556  A
C555        C560   1.415       .  A
C556        C557   1.394       .  A
C556        H575   1.086       .  S
C557       C1718   1.488       .  S
C557        C558   1.413       .  A
C558        C559   1.425       .  A
C558        C565   1.404       .  A
C559        C560   1.424   1_554  A
C559        C564   1.422   1_655  A
C560        C561   1.404       .  A
C561        C562   1.397   1_655  A
C561        H571   1.083       .  S
C562        C563   1.408       .  A
C562        H572   1.082       .  S
C563        C564   1.425   1_556  A
C563        C570   1.420       .  A
C564        C567   1.423       .  A
C565        C566   1.393   1_655  A
C565        H573   1.082       .  S
C566        C567   1.405       .  A
C566        H574   1.082       .  S
C567        C568   1.412       .  A
C568        C800   1.488       .  S
C568        C569   1.398       .  A
C569        C570   1.400   1_554  A
C569        H576   1.084       .  S
C570        C892   1.498       .  S
C577        C585   1.493       .  S
C577        C578   1.407       .  A
C577        C582   1.406       .  A
C578        C579   1.405       .  A
C578        H587   1.083       .  S
C579        C580   1.408       .  A
C579        H588   1.081       .  S
C580        C583   1.491       .  S
C580        C581   1.405       .  A
C581        C582   1.396       .  A
C581        H589   1.084       .  S
C582        H590   1.081       .  S
C583        H591   1.088       .  S
C583        C584   1.350       .  D
C584        H592   1.084       .  S
C585        H593   1.087       .  S
C585        C586   1.351       .  D
C586        H594   1.084       .  S
C595        C603   1.490       .  S
C595        C596   1.405       .  A
C595        C600   1.407       .  A
C596        C597   1.397       .  A
C596        H605   1.084       .  S
C597        C598   1.406       .  A
C597        H606   1.081       .  S
C598        C601   1.493       .  S
C598        C599   1.407       .  A
C599        C600   1.404       .  A
C599        H607   1.083       .  S
C600        H608   1.081       .  S
C601        H609   1.087       .  S
C601        C602   1.351       .  D
C602        H610   1.084       .  S
C603        H611   1.089       .  S
C603        C604   1.352       .  D
C604        H612   1.084       .  S
C613        C621   1.492       .  S
C613        C614   1.405       .  A
C613        C618   1.407       .  A
C614        C615   1.400       .  A
C614        H623   1.084       .  S
C615        C616   1.409       .  A
C615        H624   1.080       .  S
C616        C619   1.498       .  S
C616        C617   1.407       .  A
C617        C618   1.403       .  A
C617        H625   1.083       .  S
C618        H626   1.081       .  S
C619        H627   1.087       .  S
C619        C620   1.351       .  D
C620        H628   1.083       .  S
C621        H629   1.088       .  S
C621        C622   1.352       .  D
C622        H630   1.084       .  S
C631        C639   1.489       .  S
C631        C632   1.404       .  A
C631        C636   1.408       .  A
C632        C633   1.394       .  A
C632        H641   1.084       .  S
C633        C634   1.405       .  A
C633        H642   1.082       .  S
C634        C637   1.493       .  S
C634        C635   1.408       .  A
C635        C636   1.408       .  A
C635        H643   1.083       .  S
C636        H644   1.081       .  S
C637        H645   1.087       .  S
C637        C638   1.351       .  D
C638        H646   1.085       .  S
C639        H647   1.089       .  S
C639        C640   1.351       .  D
C640        H648   1.084       .  S
C649        C657   1.490       .  S
C649        C650   1.405       .  A
C649        C654   1.408       .  A
C650        C651   1.396       .  A
C650        H659   1.084       .  S
C651        C652   1.406       .  A
C651        H660   1.081       .  S
C652        C655   1.492       .  S
C652        C653   1.407       .  A
C653        C654   1.405       .  A
C653        H661   1.083       .  S
C654        H662   1.081       .  S
C655        H663   1.087       .  S
C655        C656   1.350       .  D
C656        H664   1.085       .  S
C657        H665   1.089       .  S
C657        C658   1.353       .  D
C658        H666   1.084       .  S
C667        C675   1.491       .  S
C667        C668   1.406       .  A
C667        C672   1.407       .  A
C668        C669   1.401       .  A
C668        H677   1.084       .  S
C669        C670   1.408       .  A
C669        H678   1.080       .  S
C670        C673   1.494       .  S
C670        C671   1.405       .  A
C671        C672   1.399       .  A
C671        H679   1.083       .  S
C672        H680   1.080       .  S
C673        H681   1.087       .  S
C673        C674   1.348       .  D
C674        H682   1.083       .  S
C675        H683   1.088       .  S
C675        C676   1.352       .  D
C676        H684   1.083       .  S
C685        C693   1.486       .  S
C685        C686   1.404       .  A
C685        C690   1.408       .  A
C686        C687   1.394       .  A
C686        H695   1.084       .  S
C687        C688   1.405       .  A
C687        H696   1.081       .  S
C688        C691   1.486       .  S
C688        C689   1.405       .  A
C689        C690   1.402       .  A
C689        H697   1.083       .  S
C690        H698   1.080       .  S
C691        H699   1.087       .  S
C691        C692   1.347       .  D
C692        H700   1.085       .  S
C693        H701   1.089       .  S
C693        C694   1.349       .  D
C694        H702   1.083       .  S
C703        C711   1.482       .  S
C703        C704   1.404       .  A
C703        C708   1.405       .  A
C704        C705   1.398       .  A
C704        H713   1.084       .  S
C705        C706   1.407       .  A
C705        H714   1.080       .  S
C706        C709   1.481       .  S
C706        C707   1.403       .  A
C707        C708   1.394       .  A
C707        H715   1.083       .  S
C708        H716   1.081       .  S
C709        H717   1.088       .  S
C709        C710   1.347       .  D
C710        H718   1.083       .  S
C711        H719   1.087       .  S
C711        C712   1.347       .  D
C712        H720   1.084       .  S
C721        C729   1.487       .  S
C721        C722   1.401       .  A
C721        C726   1.410       .  A
C722        C723   1.397       .  A
C722        H731   1.083       .  S
C723        C724   1.409       .  A
C723        H732   1.082       .  S
C724        C727   1.487       .  S
C724        C725   1.402       .  A
C725        C726   1.399       .  A
C725        H733   1.083       .  S
C726        H734   1.081       .  S
C727        H735   1.087       .  S
C727        C728   1.343       .  D
C728        H736   1.085       .  S
C729        H737   1.087       .  S
C729        C730   1.343       .  D
C730        H738   1.085       .  S
C739        C747   1.484       .  S
C739        C740   1.404       .  A
C739        C744   1.404       .  A
C740        C741   1.402       .  A
C740        H749   1.083       .  S
C741        C742   1.408       .  A
C741        H750   1.081       .  S
C742        C745   1.486       .  S
C742        C743   1.404       .  A
C743        C744   1.395       .  A
C743        H751   1.083       .  S
C744        H752   1.082       .  S
C745        H753   1.088       .  S
C745        C746   1.350       .  D
C746        H754   1.084       .  S
C747        H755   1.087       .  S
C747        C748   1.348       .  D
C748        H756   1.085       .  S
C757        C765   1.491       .  S
C757        C758   1.407       .  A
C757        C762   1.407       .  A
C758        C759   1.402       .  A
C758        H767   1.083       .  S
C759        C760   1.407       .  A
C759        H768   1.081       .  S
C760        C763   1.486       .  S
C760        C761   1.403       .  A
C761        C762   1.396       .  A
C761        H769   1.084       .  S
C762        H770   1.080       .  S
C763        H771   1.088       .  S
C763        C764   1.349       .  D
C764        H772   1.084       .  S
C765        H773   1.087       .  S
C765        C766   1.349       .  D
C766        H774   1.083       .  S
C775        C783   1.493       .  S
C775        C776   1.404       .  A
C775        C780   1.410       .  A
C776        C777   1.398       .  A
C776        H785   1.084       .  S
C777        C778   1.403       .  A
C777        H786   1.084       .  S
C778        C781   1.486       .  S
C778        C779   1.407       .  A
C779        C780   1.403       .  A
C779        H787   1.082       .  S
C780        H788   1.080       .  S
C781        H789   1.088       .  S
C781        C782   1.350       .  D
C782        H790   1.085       .  S
C783        H791   1.088       .  S
C783        C784   1.348       .  D
C784        H792   1.084       .  S
C793        C801   1.487       .  S
C793        C794   1.405       .  A
C793        C798   1.406       .  A
C794        C795   1.400       .  A
C794        H803   1.083       .  S
C795        C796   1.408       .  A
C795        H804   1.080       .  S
C796        C799   1.487       .  S
C796        C797   1.405       .  A
C797        C798   1.397       .  A
C797        H805   1.083       .  S
C798        H806   1.081       .  S
C799        H807   1.088       .  S
C799        C800   1.348       .  D
C800        H808   1.083       .  S
C801        H809   1.087       .  S
C801        C802   1.346       .  D
C802        H810   1.084       .  S
C811        C819   1.488       .  S
C811        C812   1.406       .  A
C811        C816   1.406       .  A
C812        C813   1.398       .  A
C812        H821   1.083       .  S
C813        C814   1.404       .  A
C813        H822   1.082       .  S
C814        C817   1.487       .  S
C814        C815   1.406       .  A
C815        C816   1.402       .  A
C815        H823   1.083       .  S
C816        H824   1.081       .  S
C817        H825   1.087       .  S
C817        C818   1.348       .  D
C818        H826   1.085       .  S
C819        H827   1.087       .  S
C819        C820   1.352       .  D
C820        H828   1.084       .  S
C829        C837   1.489       .  S
C829        C830   1.404       .  A
C829        C834   1.407       .  A
C830        C831   1.395       .  A
C830        H839   1.084       .  S
C831        C832   1.406       .  A
C831        H840   1.079       .  S
C832        C835   1.494       .  S
C832        C833   1.408       .  A
C833        C834   1.404       .  A
C833        H841   1.083       .  S
C834        H842   1.081       .  S
C835        H843   1.087       .  S
C835        C836   1.351       .  D
C836        H844   1.082       .  S
C837        H845   1.088       .  S
C837        C838   1.352       .  D
C838        H846   1.083       .  S
C847        C855   1.491       .  S
C847        C848   1.406       .  A
C847        C852   1.408       .  A
C848        C849   1.399       .  A
C848        H857   1.083       .  S
C849        C850   1.405       .  A
C849        H858   1.082       .  S
C850        C853   1.484       .  S
C850        C851   1.403       .  A
C851        C852   1.398       .  A
C851        H859   1.084       .  S
C852        H860   1.080       .  S
C853        H861   1.088       .  S
C853        C854   1.348       .  D
C854        H862   1.085       .  S
C855        H863   1.087       .  S
C855        C856   1.348       .  D
C856        H864   1.083       .  S
C865        C873   1.481       .  S
C865        C866   1.401       .  A
C865        C870   1.406       .  A
C866        C867   1.395       .  A
C866        H875   1.084       .  S
C867        C868   1.407       .  A
C867        H876   1.081       .  S
C868        C871   1.488       .  S
C868        C869   1.406       .  A
C869        C870   1.401       .  A
C869        H877   1.083       .  S
C870        H878   1.082       .  S
C871        H879   1.087       .  S
C871        C872   1.349       .  D
C872        H880   1.084       .  S
C873        H881   1.089       .  S
C873        C874   1.343       .  D
C874        H882   1.085       .  S
C883        C891   1.492       .  S
C883        C884   1.407       .  A
C883        C888   1.408       .  A
C884        C885   1.397       .  A
C884        H893   1.083       .  S
C885        C886   1.404       .  A
C885        H894   1.082       .  S
C886        C889   1.487       .  S
C886        C887   1.405       .  A
C887        C888   1.402       .  A
C887        H895   1.083       .  S
C888        H896   1.080       .  S
C889        H897   1.087       .  S
C889        C890   1.348       .  D
C890        H898   1.085       .  S
C891        H899   1.087       .  S
C891        C892   1.353       .  D
C892        H900   1.083       .  S
C901        C909   1.483       .  S
C901        C902   1.402       .  A
C901        C906   1.407       .  A
C902        C903   1.394       .  A
C902        H911   1.084       .  S
C903        C904   1.406       .  A
C903        H912   1.081       .  S
C904        C907   1.485       .  S
C904        C905   1.406       .  A
C905        C906   1.401       .  A
C905        H913   1.083       .  S
C906        H914   1.081       .  S
C907        H915   1.087       .  S
C907        C908   1.347       .  D
C908        H916   1.084       .  S
C909        H917   1.087       .  S
C909        C910   1.346       .  D
C910        H918   1.085       .  S
C919        C927   1.492       .  S
C919        C920   1.406       .  A
C919        C924   1.407       .  A
C920        C921   1.399       .  A
C920        H929   1.083       .  S
C921        C922   1.406       .  A
C921        H930   1.080       .  S
C922        C925   1.489       .  S
C922        C923   1.405       .  A
C923        C924   1.399       .  A
C923        H931   1.084       .  S
C924        H932   1.080       .  S
C925        H933   1.087       .  S
C925        C926   1.349       .  D
C926        H934   1.084       .  S
C927        H935   1.087       .  S
C927        C928   1.350       .  D
C928        H936   1.083       .  S
C937        C945   1.492       .  S
C937        C938   1.407       .  A
C937        C942   1.406       .  A
C938        C939   1.405       .  A
C938        H947   1.083       .  S
C939        C940   1.407       .  A
C939        H948   1.082       .  S
C940        C943   1.488       .  S
C940        C941   1.404       .  A
C941        C942   1.398       .  A
C941        H949   1.083       .  S
C942        H950   1.082       .  S
C943        H951   1.088       .  S
C943        C944   1.352       .  D
C944        H952   1.085       .  S
C945        H953   1.087       .  S
C945        C946   1.350       .  D
C946        H954   1.085       .  S
C955        C963   1.488       .  S
C955        C956   1.407       .  A
C955        C960   1.406       .  A
C956        C957   1.398       .  A
C956        H965   1.084       .  S
C957        C958   1.404       .  A
C957        H966   1.082       .  S
C958        C961   1.486       .  S
C958        C959   1.405       .  A
C959        C960   1.400       .  A
C959        H967   1.083       .  S
C960        H968   1.080       .  S
C961        H969   1.087       .  S
C961        C962   1.347       .  D
C962        H970   1.085       .  S
C963        H971   1.088       .  S
C963        C964   1.352       .  D
C964        H972   1.083       .  S
C973        C981   1.484       .  S
C973        C974   1.404       .  A
C973        C978   1.405       .  A
C974        C975   1.400       .  A
C974        H983   1.083       .  S
C975        C976   1.408       .  A
C975        H984   1.080       .  S
C976        C979   1.486       .  S
C976        C977   1.404       .  A
C977        C978   1.394       .  A
C977        H985   1.083       .  S
C978        H986   1.081       .  S
C979        H987   1.088       .  S
C979        C980   1.347       .  D
C980        H988   1.083       .  S
C981        H989   1.087       .  S
C981        C982   1.346       .  D
C982        H990   1.084       .  S
C991        C999   1.485       .  S
C991        C992   1.405       .  A
C991        C996   1.407       .  A
C992        C993   1.398       .  A
C992       H1001   1.084       .  S
C993        C994   1.407       .  A
C993       H1002   1.081       .  S
C994        C997   1.487       .  S
C994        C995   1.404       .  A
C995        C996   1.399       .  A
C995       H1003   1.083       .  S
C996       H1004   1.081       .  S
C997       H1005   1.087       .  S
C997        C998   1.348       .  D
C998       H1006   1.084       .  S
C999       H1007   1.088       .  S
C999       C1000   1.350       .  D
C1000      H1008   1.084       .  S
C1009      C1017   1.484       .  S
C1009      C1010   1.404       .  A
C1009      C1014   1.408       .  A
C1010      C1011   1.393       .  A
C1010      H1019   1.084       .  S
C1011      C1012   1.403       .  A
C1011      H1020   1.082       .  S
C1012      C1015   1.479       .  S
C1012      C1013   1.403       .  A
C1013      C1014   1.399       .  A
C1013      H1021   1.084       .  S
C1014      H1022   1.080       .  S
C1015      H1023   1.087       .  S
C1015      C1016   1.347       .  D
C1016      H1024   1.085       .  S
C1017      H1025   1.088       .  S
C1017      C1018   1.346       .  D
C1018      H1026   1.084       .  S
C1027      C1035   1.477       .  S
C1027      C1028   1.403       .  A
C1027      C1032   1.403       .  A
C1028      C1029   1.395       .  A
C1028      H1037   1.084       .  S
C1029      C1030   1.404       .  A
C1029      H1038   1.082       .  S
C1030      C1033   1.486       .  S
C1030      C1031   1.408       .  A
C1031      C1032   1.403       .  A
C1031      H1039   1.083       .  S
C1032      H1040   1.083       .  S
C1033      H1041   1.087       .  S
C1033      C1034   1.350       .  D
C1034      H1042   1.085       .  S
C1035      H1043   1.088       .  S
C1035      C1036   1.347       .  D
C1036      H1044   1.086       .  S
C1045      C1053   1.482       .  S
C1045      C1046   1.407       .  A
C1045      C1050   1.402       .  A
C1046      C1047   1.400       .  A
C1046      H1055   1.082       .  S
C1047      C1048   1.409       .  A
C1047      H1056   1.081       .  S
C1048      C1051   1.486       .  S
C1048      C1049   1.403       .  A
C1049      C1050   1.396       .  A
C1049      H1057   1.084       .  S
C1050      H1058   1.084       .  S
C1051      H1059   1.087       .  S
C1051      C1052   1.346       .  D
C1052      H1060   1.084       .  S
C1053      H1061   1.088       .  S
C1053      C1054   1.348       .  D
C1054      H1062   1.085       .  S
C1063      C1071   1.484       .  S
C1063      C1064   1.404       .  A
C1063      C1068   1.407       .  A
C1064      C1065   1.394       .  A
C1064      H1073   1.084       .  S
C1065      C1066   1.405       .  A
C1065      H1074   1.081       .  S
C1066      C1069   1.483       .  S
C1066      C1067   1.405       .  A
C1067      C1068   1.399       .  A
C1067      H1075   1.083       .  S
C1068      H1076   1.080       .  S
C1069      H1077   1.087       .  S
C1069      C1070   1.348       .  D
C1070      H1078   1.084       .  S
C1071      H1079   1.088       .  S
C1071      C1072   1.346       .  D
C1072      H1080   1.083       .  S
C1081      C1089   1.483       .  S
C1081      C1082   1.404       .  A
C1081      C1086   1.407       .  A
C1082      C1083   1.397       .  A
C1082      H1091   1.084       .  S
C1083      C1084   1.406       .  A
C1083      H1092   1.082       .  S
C1084      C1087   1.483       .  S
C1084      C1085   1.403       .  A
C1085      C1086   1.397       .  A
C1085      H1093   1.083       .  S
C1086      H1094   1.080       .  S
C1087      H1095   1.087       .  S
C1087      C1088   1.344       .  D
C1088      H1096   1.085       .  S
C1089      H1097   1.088       .  S
C1089      C1090   1.347       .  D
C1090      H1098   1.084       .  S
C1099      C1107   1.483       .  S
C1099      C1100   1.402       .  A
C1099      C1104   1.406       .  A
C1100      C1101   1.399       .  A
C1100      H1109   1.084       .  S
C1101      C1102   1.410       .  A
C1101      H1110   1.079       .  S
C1102      C1105   1.492       .  S
C1102      C1103   1.405       .  A
C1103      C1104   1.399       .  A
C1103      H1111   1.083       .  S
C1104      H1112   1.082       .  S
C1105      H1113   1.088       .  S
C1105      C1106   1.347       .  D
C1106      H1114   1.082       .  S
C1107      H1115   1.088       .  S
C1107      C1108   1.348       .  D
C1108      H1116   1.085       .  S
C1117      C1125   1.488       .  S
C1117      C1118   1.407       .  A
C1117      C1122   1.405       .  A
C1118      C1119   1.402       .  A
C1118      H1127   1.083       .  S
C1119      C1120   1.406       .  A
C1119      H1128   1.081       .  S
C1120      C1123   1.485       .  S
C1120      C1121   1.404       .  A
C1121      C1122   1.393       .  A
C1121      H1129   1.084       .  S
C1122      H1130   1.080       .  S
C1123      H1131   1.087       .  S
C1123      C1124   1.349       .  D
C1124      H1132   1.084       .  S
C1125      H1133   1.087       .  S
C1125      C1126   1.349       .  D
C1126      H1134   1.083       .  S
C1135      C1143   1.489       .  S
C1135      C1136   1.405       .  A
C1135      C1140   1.408       .  A
C1136      C1137   1.397       .  A
C1136      H1145   1.084       .  S
C1137      C1138   1.406       .  A
C1137      H1146   1.081       .  S
C1138      C1141   1.487       .  S
C1138      C1139   1.405       .  A
C1139      C1140   1.400       .  A
C1139      H1147   1.083       .  S
C1140      H1148   1.080       .  S
C1141      H1149   1.087       .  S
C1141      C1142   1.347       .  D
C1142      H1150   1.084       .  S
C1143      H1151   1.087       .  S
C1143      C1144   1.349       .  D
C1144      H1152   1.083       .  S
C1153      C1161   1.487       .  S
C1153      C1154   1.404       .  A
C1153      C1158   1.407       .  A
C1154      C1155   1.397       .  A
C1154      H1163   1.084       .  S
C1155      C1156   1.407       .  A
C1155      H1164   1.081       .  S
C1156      C1159   1.490       .  S
C1156      C1157   1.405       .  A
C1157      C1158   1.402       .  A
C1157      H1165   1.083       .  S
C1158      H1166   1.081       .  S
C1159      H1167   1.087       .  S
C1159      C1160   1.347       .  D
C1160      H1168   1.085       .  S
C1161      H1169   1.088       .  S
C1161      C1162   1.350       .  D
C1162      H1170   1.084       .  S
C1171      C1179   1.484       .  S
C1171      C1172   1.403       .  A
C1171      C1176   1.406       .  A
C1172      C1173   1.397       .  A
C1172      H1181   1.084       .  S
C1173      C1174   1.409       .  A
C1173      H1182   1.079       .  S
C1174      C1177   1.493       .  S
C1174      C1175   1.406       .  A
C1175      C1176   1.400       .  A
C1175      H1183   1.083       .  S
C1176      H1184   1.081       .  S
C1177      H1185   1.088       .  S
C1177      C1178   1.348       .  D
C1178      H1186   1.082       .  S
C1179      H1187   1.088       .  S
C1179      C1180   1.349       .  D
C1180      H1188   1.084       .  S
C1189      C1197   1.490       .  S
C1189      C1190   1.405       .  A
C1189      C1194   1.407       .  A
C1190      C1191   1.401       .  A
C1190      H1199   1.083       .  S
C1191      C1192   1.407       .  A
C1191      H1200   1.081       .  S
C1192      C1195   1.486       .  S
C1192      C1193   1.403       .  A
C1193      C1194   1.397       .  A
C1193      H1201   1.083       .  S
C1194      H1202   1.080       .  S
C1195      H1203   1.088       .  S
C1195      C1196   1.349       .  D
C1196      H1204   1.084       .  S
C1197      H1205   1.087       .  S
C1197      C1198   1.347       .  D
C1198      H1206   1.083       .  S
C1207      C1215   1.487       .  S
C1207      C1208   1.403       .  A
C1207      C1212   1.407       .  A
C1208      C1209   1.397       .  A
C1208      H1217   1.084       .  S
C1209      C1210   1.409       .  A
C1209      H1218   1.079       .  S
C1210      C1213   1.493       .  S
C1210      C1211   1.406       .  A
C1211      C1212   1.401       .  A
C1211      H1219   1.083       .  S
C1212      H1220   1.081       .  S
C1213      H1221   1.087       .  S
C1213      C1214   1.347       .  D
C1214      H1222   1.082       .  S
C1215      H1223   1.088       .  S
C1215      C1216   1.349       .  D
C1216      H1224   1.084       .  S
C1225      C1233   1.483       .  S
C1225      C1226   1.403       .  A
C1225      C1230   1.406       .  A
C1226      C1227   1.394       .  A
C1226      H1235   1.084       .  S
C1227      C1228   1.405       .  A
C1227      H1236   1.080       .  S
C1228      C1231   1.486       .  S
C1228      C1229   1.406       .  A
C1229      C1230   1.399       .  A
C1229      H1237   1.083       .  S
C1230      H1238   1.081       .  S
C1231      H1239   1.087       .  S
C1231      C1232   1.349       .  D
C1232      H1240   1.083       .  S
C1233      H1241   1.088       .  S
C1233      C1234   1.346       .  D
C1234      H1242   1.084       .  S
C1243      C1251   1.482       .  S
C1243      C1244   1.403       .  A
C1243      C1248   1.407       .  A
C1244      C1245   1.395       .  A
C1244      H1253   1.084       .  S
C1245      C1246   1.406       .  A
C1245      H1254   1.082       .  S
C1246      C1249   1.483       .  S
C1246      C1247   1.403       .  A
C1247      C1248   1.399       .  A
C1247      H1255   1.083       .  S
C1248      H1256   1.081       .  S
C1249      H1257   1.087       .  S
C1249      C1250   1.346       .  D
C1250      H1258   1.085       .  S
C1251      H1259   1.088       .  S
C1251      C1252   1.346       .  D
C1252      H1260   1.084       .  S
C1261      C1269   1.490       .  S
C1261      C1262   1.406       .  A
C1261      C1266   1.407       .  A
C1262      C1263   1.399       .  A
C1262      H1271   1.084       .  S
C1263      C1264   1.408       .  A
C1263      H1272   1.080       .  S
C1264      C1267   1.491       .  S
C1264      C1265   1.405       .  A
C1265      C1266   1.398       .  A
C1265      H1273   1.083       .  S
C1266      H1274   1.080       .  S
C1267      H1275   1.087       .  S
C1267      C1268   1.348       .  D
C1268      H1276   1.082       .  S
C1269      H1277   1.088       .  S
C1269      C1270   1.352       .  D
C1270      H1278   1.082       .  S
C1279      C1287   1.490       .  S
C1279      C1280   1.405       .  A
C1279      C1284   1.408       .  A
C1280      C1281   1.399       .  A
C1280      H1289   1.083       .  S
C1281      C1282   1.407       .  A
C1281      H1290   1.081       .  S
C1282      C1285   1.486       .  S
C1282      C1283   1.404       .  A
C1283      C1284   1.398       .  A
C1283      H1291   1.083       .  S
C1284      H1292   1.080       .  S
C1285      H1293   1.088       .  S
C1285      C1286   1.349       .  D
C1286      H1294   1.084       .  S
C1287      H1295   1.087       .  S
C1287      C1288   1.348       .  D
C1288      H1296   1.083       .  S
C1297      C1305   1.488       .  S
C1297      C1298   1.404       .  A
C1297      C1302   1.408       .  A
C1298      C1299   1.395       .  A
C1298      H1307   1.084       .  S
C1299      C1300   1.406       .  A
C1299      H1308   1.081       .  S
C1300      C1303   1.491       .  S
C1300      C1301   1.406       .  A
C1301      C1302   1.404       .  A
C1301      H1309   1.083       .  S
C1302      H1310   1.081       .  S
C1303      H1311   1.087       .  S
C1303      C1304   1.350       .  D
C1304      H1312   1.084       .  S
C1305      H1313   1.089       .  S
C1305      C1306   1.349       .  D
C1306      H1314   1.084       .  S
C1315      C1323   1.478       .  S
C1315      C1316   1.402       .  A
C1315      C1320   1.404       .  A
C1316      C1317   1.395       .  A
C1316      H1325   1.084       .  S
C1317      C1318   1.408       .  A
C1317      H1326   1.079       .  S
C1318      C1321   1.486       .  S
C1318      C1319   1.406       .  A
C1319      C1320   1.397       .  A
C1319      H1327   1.083       .  S
C1320      H1328   1.082       .  S
C1321      H1329   1.087       .  S
C1321      C1322   1.347       .  D
C1322      H1330   1.082       .  S
C1323      H1331   1.088       .  S
C1323      C1324   1.346       .  D
C1324      H1332   1.085       .  S
C1333      C1341   1.488       .  S
C1333      C1334   1.404       .  A
C1333      C1338   1.407       .  A
C1334      C1335   1.397       .  A
C1334      H1343   1.084       .  S
C1335      C1336   1.407       .  A
C1335      H1344   1.079       .  S
C1336      C1339   1.493       .  S
C1336      C1337   1.407       .  A
C1337      C1338   1.402       .  A
C1337      H1345   1.083       .  S
C1338      H1346   1.081       .  S
C1339      H1347   1.087       .  S
C1339      C1340   1.350       .  D
C1340      H1348   1.082       .  S
C1341      H1349   1.088       .  S
C1341      C1342   1.351       .  D
C1342      H1350   1.084       .  S
C1351      C1359   1.490       .  S
C1351      C1352   1.405       .  A
C1351      C1356   1.407       .  A
C1352      C1353   1.397       .  A
C1352      H1361   1.084       .  S
C1353      C1354   1.408       .  A
C1353      H1362   1.080       .  S
C1354      C1357   1.494       .  S
C1354      C1355   1.407       .  A
C1355      C1356   1.402       .  A
C1355      H1363   1.083       .  S
C1356      H1364   1.080       .  S
C1357      H1365   1.087       .  S
C1357      C1358   1.348       .  D
C1358      H1366   1.083       .  S
C1359      H1367   1.088       .  S
C1359      C1360   1.351       .  D
C1360      H1368   1.083       .  S
C1369      C1377   1.477       .  S
C1369      C1370   1.404       .  A
C1369      C1374   1.402       .  A
C1370      C1371   1.399       .  A
C1370      H1379   1.083       .  S
C1371      C1372   1.406       .  A
C1371      H1380   1.082       .  S
C1372      C1375   1.479       .  S
C1372      C1373   1.404       .  A
C1373      C1374   1.394       .  A
C1373      H1381   1.084       .  S
C1374      H1382   1.083       .  S
C1375      H1383   1.088       .  S
C1375      C1376   1.347       .  D
C1376      H1384   1.085       .  S
C1377      H1385   1.087       .  S
C1377      C1378   1.344       .  D
C1378      H1386   1.086       .  S
C1387      C1395   1.485       .  S
C1387      C1388   1.401       .  A
C1387      C1392   1.409       .  A
C1388      C1389   1.400       .  A
C1388      H1397   1.083       .  S
C1389      C1390   1.409       .  A
C1389      H1398   1.083       .  S
C1390      C1393   1.485       .  S
C1390      C1391   1.400       .  A
C1391      C1392   1.398       .  A
C1391      H1399   1.083       .  S
C1392      H1400   1.083       .  S
C1393      H1401   1.087       .  S
C1393      C1394   1.342       .  D
C1394      H1402   1.086       .  S
C1395      H1403   1.086       .  S
C1395      C1396   1.342       .  D
C1396      H1404   1.087       .  S
C1405      C1413   1.481       .  S
C1405      C1406   1.401       .  A
C1405      C1410   1.407       .  A
C1406      C1407   1.399       .  A
C1406      H1415   1.083       .  S
C1407      C1408   1.410       .  A
C1407      H1416   1.082       .  S
C1408      C1411   1.483       .  S
C1408      C1409   1.400       .  A
C1409      C1410   1.395       .  A
C1409      H1417   1.083       .  S
C1410      H1418   1.083       .  S
C1411      H1419   1.087       .  S
C1411      C1412   1.342       .  D
C1412      H1420   1.085       .  S
C1413      H1421   1.087       .  S
C1413      C1414   1.341       .  D
C1414      H1422   1.087       .  S
C1423      C1431   1.486       .  S
C1423      C1424   1.404       .  A
C1423      C1428   1.407       .  A
C1424      C1425   1.394       .  A
C1424      H1433   1.084       .  S
C1425      C1426   1.405       .  A
C1425      H1434   1.081       .  S
C1426      C1429   1.484       .  S
C1426      C1427   1.405       .  A
C1427      C1428   1.400       .  A
C1427      H1435   1.084       .  S
C1428      H1436   1.080       .  S
C1429      H1437   1.088       .  S
C1429      C1430   1.348       .  D
C1430      H1438   1.084       .  S
C1431      H1439   1.088       .  S
C1431      C1432   1.348       .  D
C1432      H1440   1.083       .  S
C1441      C1449   1.491       .  S
C1441      C1442   1.405       .  A
C1441      C1446   1.407       .  A
C1442      C1443   1.397       .  A
C1442      H1451   1.083       .  S
C1443      C1444   1.407       .  A
C1443      H1452   1.079       .  S
C1444      C1447   1.495       .  S
C1444      C1445   1.408       .  A
C1445      C1446   1.404       .  A
C1445      H1453   1.083       .  S
C1446      H1454   1.081       .  S
C1447      H1455   1.087       .  S
C1447      C1448   1.350       .  D
C1448      H1456   1.082       .  S
C1449      H1457   1.088       .  S
C1449      C1450   1.352       .  D
C1450      H1458   1.084       .  S
C1459      C1467   1.486       .  S
C1459      C1460   1.405       .  A
C1459      C1464   1.405       .  A
C1460      C1461   1.399       .  A
C1460      H1469   1.083       .  S
C1461      C1462   1.407       .  A
C1461      H1470   1.080       .  S
C1462      C1465   1.487       .  S
C1462      C1463   1.405       .  A
C1463      C1464   1.396       .  A
C1463      H1471   1.084       .  S
C1464      H1472   1.081       .  S
C1465      H1473   1.088       .  S
C1465      C1466   1.349       .  D
C1466      H1474   1.083       .  S
C1467      H1475   1.087       .  S
C1467      C1468   1.349       .  D
C1468      H1476   1.084       .  S
C1477      C1485   1.488       .  S
C1477      C1478   1.404       .  A
C1477      C1482   1.406       .  A
C1478      C1479   1.398       .  A
C1478      H1487   1.083       .  S
C1479      C1480   1.408       .  A
C1479      H1488   1.080       .  S
C1480      C1483   1.493       .  S
C1480      C1481   1.407       .  A
C1481      C1482   1.401       .  A
C1481      H1489   1.084       .  S
C1482      H1490   1.081       .  S
C1483      H1491   1.088       .  S
C1483      C1484   1.349       .  D
C1484      H1492   1.083       .  S
C1485      H1493   1.088       .  S
C1485      C1486   1.350       .  D
C1486      H1494   1.084       .  S
C1495      C1503   1.487       .  S
C1495      C1496   1.404       .  A
C1495      C1500   1.408       .  A
C1496      C1497   1.395       .  A
C1496      H1505   1.084       .  S
C1497      C1498   1.407       .  A
C1497      H1506   1.081       .  S
C1498      C1501   1.489       .  S
C1498      C1499   1.405       .  A
C1499      C1500   1.401       .  A
C1499      H1507   1.083       .  S
C1500      H1508   1.080       .  S
C1501      H1509   1.087       .  S
C1501      C1502   1.347       .  D
C1502      H1510   1.084       .  S
C1503      H1511   1.088       .  S
C1503      C1504   1.348       .  D
C1504      H1512   1.083       .  S
C1513      C1521   1.483       .  S
C1513      C1514   1.404       .  A
C1513      C1518   1.405       .  A
C1514      C1515   1.396       .  A
C1514      H1523   1.084       .  S
C1515      C1516   1.406       .  A
C1515      H1524   1.080       .  S
C1516      C1519   1.484       .  S
C1516      C1517   1.405       .  A
C1517      C1518   1.396       .  A
C1517      H1525   1.084       .  S
C1518      H1526   1.080       .  S
C1519      H1527   1.088       .  S
C1519      C1520   1.347       .  D
C1520      H1528   1.082       .  S
C1521      H1529   1.087       .  S
C1521      C1522   1.348       .  D
C1522      H1530   1.084       .  S
C1531      C1539   1.490       .  S
C1531      C1532   1.405       .  A
C1531      C1536   1.408       .  A
C1532      C1533   1.396       .  A
C1532      H1541   1.084       .  S
C1533      C1534   1.405       .  A
C1533      H1542   1.082       .  S
C1534      C1537   1.491       .  S
C1534      C1535   1.406       .  A
C1535      C1536   1.404       .  A
C1535      H1543   1.083       .  S
C1536      H1544   1.080       .  S
C1537      H1545   1.087       .  S
C1537      C1538   1.350       .  D
C1538      H1546   1.085       .  S
C1539      H1547   1.088       .  S
C1539      C1540   1.350       .  D
C1540      H1548   1.083       .  S
C1549      C1557   1.486       .  S
C1549      C1550   1.406       .  A
C1549      C1554   1.403       .  A
C1550      C1551   1.403       .  A
C1550      H1559   1.083       .  S
C1551      C1552   1.406       .  A
C1551      H1560   1.081       .  S
C1552      C1555   1.489       .  S
C1552      C1553   1.406       .  A
C1553      C1554   1.398       .  A
C1553      H1561   1.084       .  S
C1554      H1562   1.083       .  S
C1555      H1563   1.087       .  S
C1555      C1556   1.353       .  D
C1556      H1564   1.084       .  S
C1557      H1565   1.087       .  S
C1557      C1558   1.350       .  D
C1558      H1566   1.086       .  S
C1567      C1575   1.480       .  S
C1567      C1568   1.403       .  A
C1567      C1572   1.403       .  A
C1568      C1569   1.398       .  A
C1568      H1577   1.084       .  S
C1569      C1570   1.408       .  A
C1569      H1578   1.080       .  S
C1570      C1573   1.487       .  S
C1570      C1571   1.405       .  A
C1571      C1572   1.396       .  A
C1571      H1579   1.084       .  S
C1572      H1580   1.082       .  S
C1573      H1581   1.087       .  S
C1573      C1574   1.348       .  D
C1574      H1582   1.083       .  S
C1575      H1583   1.087       .  S
C1575      C1576   1.346       .  D
C1576      H1584   1.085       .  S
C1585      C1593   1.498       .  S
C1585      C1586   1.404       .  A
C1585      C1590   1.412       .  A
C1586      C1587   1.395       .  A
C1586      H1595   1.083       .  S
C1587      C1588   1.402       .  A
C1587      H1596   1.084       .  S
C1588      C1591   1.491       .  S
C1588      C1589   1.410       .  A
C1589      C1590   1.410       .  A
C1589      H1597   1.082       .  S
C1590      H1598   1.081       .  S
C1591      H1599   1.088       .  S
C1591      C1592   1.351       .  D
C1592      H1600   1.085       .  S
C1593      H1601   1.087       .  S
C1593      C1594   1.349       .  D
C1594      H1602   1.084       .  S
C1603      C1611   1.499       .  S
C1603      C1604   1.409       .  A
C1603      C1608   1.408       .  A
C1604      C1605   1.405       .  A
C1604      H1613   1.083       .  S
C1605      C1606   1.407       .  A
C1605      H1614   1.080       .  S
C1606      C1609   1.494       .  S
C1606      C1607   1.406       .  A
C1607      C1608   1.399       .  A
C1607      H1615   1.084       .  S
C1608      H1616   1.079       .  S
C1609      H1617   1.088       .  S
C1609      C1610   1.355       .  D
C1610      H1618   1.083       .  S
C1611      H1619   1.087       .  S
C1611      C1612   1.353       .  D
C1612      H1620   1.082       .  S
C1621      C1629   1.487       .  S
C1621      C1622   1.409       .  A
C1621      C1626   1.399       .  A
C1622      C1623   1.400       .  A
C1622      H1631   1.083       .  S
C1623      C1624   1.407       .  A
C1623      H1632   1.081       .  S
C1624      C1627   1.489       .  S
C1624      C1625   1.407       .  A
C1625      C1626   1.398       .  A
C1625      H1633   1.083       .  S
C1626      H1634   1.083       .  S
C1627      H1635   1.087       .  S
C1627      C1628   1.351       .  D
C1628      H1636   1.083       .  S
C1629      H1637   1.087       .  S
C1629      C1630   1.342       .  D
C1630      H1638   1.086       .  S
C1639      C1647   1.488       .  S
C1639      C1640   1.405       .  A
C1639      C1644   1.407       .  A
C1640      C1641   1.399       .  A
C1640      H1649   1.083       .  S
C1641      C1642   1.405       .  A
C1641      H1650   1.081       .  S
C1642      C1645   1.486       .  S
C1642      C1643   1.405       .  A
C1643      C1644   1.399       .  A
C1643      H1651   1.084       .  S
C1644      H1652   1.081       .  S
C1645      H1653   1.087       .  S
C1645      C1646   1.350       .  D
C1646      H1654   1.084       .  S
C1647      H1655   1.087       .  S
C1647      C1648   1.349       .  D
C1648      H1656   1.084       .  S
C1657      C1665   1.485       .  S
C1657      C1658   1.406       .  A
C1657      C1662   1.405       .  A
C1658      C1659   1.399       .  A
C1658      H1667   1.081       .  S
C1659      C1660   1.409       .  A
C1659      H1668   1.082       .  S
C1660      C1663   1.485       .  S
C1660      C1661   1.400       .  A
C1661      C1662   1.397       .  A
C1661      H1669   1.083       .  S
C1662      H1670   1.083       .  S
C1663      H1671   1.087       .  S
C1663      C1664   1.342       .  D
C1664      H1672   1.085       .  S
C1665      H1673   1.087       .  S
C1665      C1666   1.348       .  D
C1666      H1674   1.084       .  S
C1675      C1683   1.483       .  S
C1675      C1676   1.405       .  A
C1675      C1680   1.406       .  A
C1676      C1677   1.395       .  A
C1676      H1685   1.083       .  S
C1677      C1678   1.405       .  A
C1677      H1686   1.080       .  S
C1678      C1681   1.482       .  S
C1678      C1679   1.404       .  A
C1679      C1680   1.395       .  A
C1679      H1687   1.084       .  S
C1680      H1688   1.080       .  S
C1681      H1689   1.088       .  S
C1681      C1682   1.347       .  D
C1682      H1690   1.083       .  S
C1683      H1691   1.088       .  S
C1683      C1684   1.347       .  D
C1684      H1692   1.083       .  S
C1693      C1701   1.494       .  S
C1693      C1694   1.407       .  A
C1693      C1698   1.408       .  A
C1694      C1695   1.403       .  A
C1694      H1703   1.083       .  S
C1695      C1696   1.407       .  A
C1695      H1704   1.080       .  S
C1696      C1699   1.488       .  S
C1696      C1697   1.403       .  A
C1697      C1698   1.395       .  A
C1697      H1705   1.084       .  S
C1698      H1706   1.079       .  S
C1699      H1707   1.088       .  S
C1699      C1700   1.350       .  D
C1700      H1708   1.083       .  S
C1701      H1709   1.087       .  S
C1701      C1702   1.350       .  D
C1702      H1710   1.081       .  S
C1711      C1719   1.484       .  S
C1711      C1712   1.404       .  A
C1711      C1716   1.405       .  A
C1712      C1713   1.399       .  A
C1712      H1721   1.083       .  S
C1713      C1714   1.407       .  A
C1713      H1722   1.080       .  S
C1714      C1717   1.485       .  S
C1714      C1715   1.406       .  A
C1715      C1716   1.396       .  A
C1715      H1723   1.084       .  S
C1716      H1724   1.082       .  S
C1717      H1725   1.088       .  S
C1717      C1718   1.351       .  D
C1718      H1726   1.083       .  S
C1719      H1727   1.087       .  S
C1719      C1720   1.347       .  D
C1720      H1728   1.085       .  S
C1729      C1737   1.487       .  S
C1729      C1730   1.405       .  A
C1729      C1734   1.407       .  A
C1730      C1731   1.396       .  A
C1730      H1739   1.084       .  S
C1731      C1732   1.407       .  A
C1731      H1740   1.080       .  S
C1732      C1735   1.491       .  S
C1732      C1733   1.406       .  A
C1733      C1734   1.402       .  A
C1733      H1741   1.083       .  S
C1734      H1742   1.081       .  S
C1735      H1743   1.087       .  S
C1735      C1736   1.349       .  D
C1736      H1744   1.083       .  S
C1737      H1745   1.089       .  S
C1737      C1738   1.351       .  D
C1738      H1746   1.084       .  S
C1747      C1755   1.482       .  S
C1747      C1748   1.405       .  A
C1747      C1752   1.405       .  A
C1748      C1749   1.396       .  A
C1748      H1757   1.084       .  S
C1749      C1750   1.403       .  A
C1749      H1758   1.083       .  S
C1750      C1753   1.482       .  S
C1750      C1751   1.405       .  A
C1751      C1752   1.401       .  A
C1751      H1759   1.083       .  S
C1752      H1760   1.082       .  S
C1753      H1761   1.087       .  S
C1753      C1754   1.348       .  D
C1754      H1762   1.086       .  S
C1755      H1763   1.088       .  S
C1755      C1756   1.349       .  D
C1756      H1764   1.085       .  S
C1765      C1773   1.485       .  S
C1765      C1766   1.404       .  A
C1765      C1770   1.408       .  A
C1766      C1767   1.395       .  A
C1766      H1775   1.084       .  S
C1767      C1768   1.405       .  A
C1767      H1776   1.082       .  S
C1768      C1771   1.481       .  S
C1768      C1769   1.403       .  A
C1769      C1770   1.398       .  A
C1769      H1777   1.083       .  S
C1770      H1778   1.080       .  S
C1771      H1779   1.087       .  S
C1771      C1772   1.345       .  D
C1772      H1780   1.085       .  S
C1773      H1781   1.088       .  S
C1773      C1774   1.346       .  D
C1774      H1782   1.083       .  S
C1783      C1791   1.485       .  S
C1783      C1784   1.403       .  A
C1783      C1788   1.406       .  A
C1784      C1785   1.396       .  A
C1784      H1793   1.083       .  S
C1785      C1786   1.407       .  A
C1785      H1794   1.081       .  S
C1786      C1789   1.487       .  S
C1786      C1787   1.406       .  A
C1787      C1788   1.400       .  A
C1787      H1795   1.083       .  S
C1788      H1796   1.082       .  S
C1789      H1797   1.087       .  S
C1789      C1790   1.349       .  D
C1790      H1798   1.084       .  S
C1791      H1799   1.087       .  S
C1791      C1792   1.347       .  D
C1792      H1800   1.085       .  S
C1801      C1809   1.487       .  S
C1801      C1802   1.405       .  A
C1801      C1806   1.406       .  A
C1802      C1803   1.399       .  A
C1802      H1811   1.083       .  S
C1803      C1804   1.406       .  A
C1803      H1812   1.080       .  S
C1804      C1807   1.486       .  S
C1804      C1805   1.405       .  A
C1805      C1806   1.396       .  A
C1805      H1813   1.084       .  S
C1806      H1814   1.080       .  S
C1807      H1815   1.088       .  S
C1807      C1808   1.349       .  D
C1808      H1816   1.083       .  S
C1809      H1817   1.088       .  S
C1809      C1810   1.348       .  D
C1810      H1818   1.084       .  S
C1819      C1827   1.484       .  S
C1819      C1820   1.404       .  A
C1819      C1824   1.406       .  A
C1820      C1821   1.399       .  A
C1820      H1829   1.084       .  S
C1821      C1822   1.408       .  A
C1821      H1830   1.080       .  S
C1822      C1825   1.486       .  S
C1822      C1823   1.404       .  A
C1823      C1824   1.394       .  A
C1823      H1831   1.084       .  S
C1824      H1832   1.080       .  S
C1825      H1833   1.088       .  S
C1825      C1826   1.347       .  D
C1826      H1834   1.083       .  S
C1827      H1835   1.088       .  S
C1827      C1828   1.346       .  D
C1828      H1836   1.084       .  S
C1837      C1845   1.483       .  S
C1837      C1838   1.402       .  A
C1837      C1842   1.407       .  A
C1838      C1839   1.395       .  A
C1838      H1847   1.084       .  S
C1839      C1840   1.407       .  A
C1839      H1848   1.080       .  S
C1840      C1843   1.487       .  S
C1840      C1841   1.405       .  A
C1841      C1842   1.400       .  A
C1841      H1849   1.083       .  S
C1842      H1850   1.081       .  S
C1843      H1851   1.087       .  S
C1843      C1844   1.346       .  D
C1844      H1852   1.083       .  S
C1845      H1853   1.089       .  S
C1845      C1846   1.347       .  D
C1846      H1854   1.085       .  S
C1855      C1863   1.486       .  S
C1855      C1856   1.405       .  A
C1855      C1860   1.408       .  A
C1856      C1857   1.397       .  A
C1856      H1865   1.083       .  S
C1857      C1858   1.404       .  A
C1857      H1866   1.082       .  S
C1858      C1861   1.481       .  S
C1858      C1859   1.402       .  A
C1859      C1860   1.398       .  A
C1859      H1867   1.083       .  S
C1860      H1868   1.080       .  S
C1861      H1869   1.087       .  S
C1861      C1862   1.343       .  D
C1862      H1870   1.085       .  S
C1863      H1871   1.088       .  S
C1863      C1864   1.348       .  D
C1864      H1872   1.083       .  S
